<?xml version="1.0" encoding="UTF-8"?>

<!-- generated on 2022-07-07 12:15:41 by Eclipse SUMO duarouter Version 1.10.0
<configuration xmlns:xsi="http://www.w3.org/2001/XMLSchema-instance" xsi:noNamespaceSchemaLocation="http://sumo.dlr.de/xsd/duarouterConfiguration.xsd">

    <input>
        <net-file value="./../network/cu.net.xml"/>
        <route-files value="./40PercentClient/trips.trips.xml"/>
    </input>

    <output>
        <output-file value="./40PercentClient/routes.rou.xml"/>
        <alternatives-output value="./40PercentClient/routes.rou.alt.xml"/>
    </output>

    <time>
        <begin value="0"/>
        <end value="3600"/>
    </time>

    <report>
        <no-warnings value="true"/>
        <ignore-errors value="true"/>
        <no-step-log value="true"/>
    </report>

</configuration>
-->

<routes xmlns:xsi="http://www.w3.org/2001/XMLSchema-instance" xsi:noNamespaceSchemaLocation="http://sumo.dlr.de/xsd/routes_file.xsd">
    <vehicle id="Trip-1" depart="0.00">
        <route edges="38285536#7 38285536#8 38285536#9 38285536#10 38285536#11 38285536#12 38285536#13 38285536#14 38285536#15 38285536#16 38285536#17 38285536#18 38285536#19 54733120#6 54733120#7 54733120#8 54733120#9 54733120#10 54733120#11 54733120#12 54733120#13 54733120#14 54733120#15 54733120#16 54733120#17 54733120#18 54733120#19 54733120#20 54733120#21 54733120#22 54733120#23"/>
    </vehicle>
    <vehicle id="Trip-2" depart="0.00">
        <route edges="-46970326#4 -46970326#3 -46970326#2 -46970326#1 -46970326#0 38284619#2 38284619#3 38284619#4 38284619#5 38284619#6 38284619#7 233125859#0 233125859#1 233125859#2 233125859#3 233125859#4 233125859#5 233125859#6 32502011#3 -724687136#1 -724687136#0 54733120#15 54733120#16 54733120#17 54733120#18 54733120#19 54733120#20 54733120#21 54733120#22"/>
    </vehicle>
    <vehicle id="Trip-3" depart="0.00">
        <route edges="153834046#8 34888245 689731684#3 766178504 689731686#1 24893934#1 24893934#2 24893934#3 28797819#0 28797819#1 28797819#2 38285536#5 38285536#6 38285536#7 38285536#8 38285536#9 38285536#10 38285536#11 38285536#12 510256970#0 510256970#2 54732622 24764150#6 24764150#7 510256968"/>
    </vehicle>
    <vehicle id="Trip-4" depart="0.00">
        <route edges="-38284622#0 38284622#0 38284622#1 38284622#2 38284622#3 38284622#4 38284622#5 38284622#6 38284622#7 725768768#0 725768768#1 725768768#2 725768768#3 725768768#4 725768768#5 725768768#6 725768768#7 725768768#8 725768768#9 725768768#10 725768768#11 725768768#12 725768768#13 725768768#14 725768768#15 725768768#16 725768768#17 725768768#18 725768768#19 725768768#20 725768768#21 725768768#22 725768768#23 725768768#24 725768768#25 725768768#26 690721682#0 690721682#1 690721682#2 690692705#3 -725809134#10 -725809134#9 -725809134#8 -725809134#7"/>
    </vehicle>
    <vehicle id="Trip-5" depart="0.00">
        <route edges="50219737#0 50219737#2 50219737#3 689731672#0 689731672#1 686693015#0 686693015#1 686693015#2 686693015#3 686693015#4 686693015#5 903839542#0 903839542#1 903839542#2 903839542#3 903839542#4 903839542#5 903839542#6 54733120#0 54733120#1 54733120#3 54733120#5 54733120#6 54733120#7 54733120#8 54733120#9 54733120#10 54733120#11 54733120#12 54733120#13 54733120#14 724687136#0"/>
    </vehicle>
    <vehicle id="Trip-6" depart="0.00">
        <route edges="689928611#1 689928611#2 689928611#3 689928611#4 689928611#5 689928611#6 689731672#4 24764150#0 24764150#1 24764150#2 24764150#3 685606030 510256970#6"/>
    </vehicle>
    <vehicle id="Trip-7" depart="0.00">
        <route edges="153834046#5 153834046#6 153834046#7 34888301 689731684#2 689731684#3 766178504 689731686#1 24893934#1 24893934#2 24893934#3 28797819#0 28797819#1 28797819#2 38285536#5 38285536#6 38285536#7 38285536#8 38285536#9 38285536#10 38285536#11 38285536#12 510256970#0"/>
    </vehicle>
    <vehicle id="Trip-8" depart="0.00">
        <route edges="28856894#3 28856894#4 28856894#5 -28856981#3 -28856981#2 -28856981#1 -28856981#0 903839542#0 903839542#1 903839542#2 903839542#3 903839542#4 903839542#5 903839542#6 54733120#0 54733120#1 54733120#3 54733120#5 54733120#6 54733120#7 54733120#8 54733120#9 54733120#10 54733120#11 54733120#12 54733120#13 54733120#14 54733120#15 54733120#16 54733120#17 54733120#18 54733120#19 54733120#20 54733120#21 54733120#22 54733120#23 54733120#24 174532759#0 174532759#1 174532759#2 174532759#3 174532759#4 174532759#5 174532759#6 38284630#5 38284630#6 38284630#7 38284630#8 29420059#0 29420059#1 29420059#2 754177479#0 754177479#1 -48981675#3 -48981675#2"/>
    </vehicle>
    <vehicle id="Trip-9" depart="0.00">
        <route edges="510256970#2 510256970#3 510256970#4 510256970#5 510256970#6 510256970#7 689731686#0 689731686#1 24893934#1 24893934#2 24893934#3 28797819#0 28797819#1 28797819#2 38285536#5"/>
    </vehicle>
    <vehicle id="Trip-10" depart="0.00">
        <route edges="38427387#0 38427387#1 24764157#1 24764157#2 24764150#0 24764150#1 24764150#2 24764150#3 685606030 510256970#6 510256970#7"/>
    </vehicle>
    <vehicle id="Trip-11" depart="0.00">
        <route edges="668509993#1 32501665#2 32501665#3 32501665#4 50220395#4 50220395#5 50220395#6 50220395#7 54733120#1 54733120#3 54733120#5 54733120#6 54733120#7 54733120#8 54733120#9 54733120#10 54733120#11 54733120#12 54733120#13 54733120#14 54733120#15 54733120#16 54733120#17 54733120#18 54733120#19 54733120#20 54733120#21 54733120#22 54733120#23 54733120#24 54733120#25 25049020 151170462 38284625 38284622#4 38284622#5 38284622#6 38284622#7 725768768#0 725768768#1 725768768#2 725768768#3 725768768#4 725768768#5 725768768#6 725768768#7 725768768#8 725768768#9 725768768#10 725768768#11 46971896#0 46971896#1 46971896#2 46971896#3 46971896#4 46971896#5 -688592562#2 -688592562#1 -688592562#0"/>
    </vehicle>
    <vehicle id="Trip-12" depart="0.00">
        <route edges="-28856981#3 -28856981#2 -28856981#1 -28856981#0 903839542#0 903839542#1 903839542#2 903839542#3 903839542#4 903839542#5 903839542#6 54733120#0 54733120#1 54733120#3 54733120#5 54733120#6 54733120#7 54733120#8 54733120#9 54733120#10 54733120#11 54733120#12 54733120#13 54733120#14 54733120#15 54733120#16 54733120#17 54733120#18 54733120#19 54733120#20 54733120#21 32502011#0 32502011#1 32502011#2 32502011#3 32502011#4 32502011#5 32502011#6 -233125771 719320360#2"/>
    </vehicle>
    <vehicle id="Trip-13" depart="0.00">
        <route edges="38421931#5 38285536#0 38285536#1 38285536#2 38285536#3 38285536#4 38285536#5 38285536#6 38285536#7 38285536#8 38285536#9 38285536#10 38285536#11 38285536#12 38285536#13 38285536#14 38285536#15 38285536#16 38285536#17 38285536#18 38285536#19 54733120#6 54733120#7 54733120#8 54733120#9 54733120#10 54733120#11 54733120#12 54733120#13 54733120#14 54733120#15 54733120#16 54733120#17 54733120#18 54733120#19 54733120#20 54733120#21 54733120#22 54733120#23 54733120#24 174532759#0 174532759#1 -233125812#2 -233125812#1 -233125812#0 32502142#2 -668472056#2 -668472056#1 -668472056#0 46970283#7 46970283#8"/>
    </vehicle>
    <vehicle id="Trip-14" depart="0.00">
        <route edges="725768768#27 -725768768#27 -725768768#26 -725768768#25 -725768768#24 -725768768#23 -725768768#22 -725768768#21 -725768768#20 -725768768#19 -725768768#18 -725768768#17 -725768768#16 -725768768#15 -725768768#14 -725768768#13 -725768768#12 46971896#0 46971896#1 46971896#2 46971896#3 46971896#4 46971896#5 46971896#6 46971896#7 46971896#8 46971896#9 46971896#10 46971896#11 46971896#12 46971896#13 725768780"/>
    </vehicle>
    <vehicle id="Trip-15" depart="0.00">
        <route edges="32501674#0 -724732945#2 -30082378#0 50220395#3 50220395#4 50220395#5 50220395#6 50220395#7 54733120#1 54733120#3 54733120#5 54733120#6 54733120#7 54733120#8 54733120#9 54733120#10 54733120#11 54733120#12 54733120#13 54733120#14 54733120#15 54733120#16 54733120#17 54733120#18 54733120#19 54733120#20 54733120#21 54733120#22 54733120#23 54733120#24 54733120#25 25049020 151170462 38284625 38427034#0 38427034#1"/>
    </vehicle>
    <vehicle id="Trip-16" depart="0.00">
        <route edges="24893934#2 24893934#3 28797819#0 28797819#1 28797819#2 38285536#5 38285536#6 38285536#7 38285536#8 38285536#9 38285536#10 38285536#11 38285536#12 38285536#13 38285536#14 38285536#15 38285536#16 38285536#17 38285536#18 38285536#19 54733120#6 54733120#7 54733120#8 54733120#9 54733120#10 54733120#11 54733120#12 54733120#13 54733120#14 54733120#15 54733120#16 54733120#17 54733120#18 54733120#19 54733120#20 54733120#21 54733120#22 54733120#23 54733120#24 54733120#25 25049020 151170462 38284625 -38284622#3 -38284622#2"/>
    </vehicle>
    <vehicle id="Trip-17" depart="0.00">
        <route edges="46970283#8 -46970283#8 -46970283#7 -46970283#6 -668472055#2 -668472055#1 -668472055#0 32502142#5 233125792#0 -233125856#2"/>
    </vehicle>
    <vehicle id="Trip-18" depart="0.00">
        <route edges="54718367#0 -41192469#1 -41192469#0 389856553#3 389856553#4 389856553#5 389856553#6 389856553#7 28800882 153834046#0 153834046#1 153834046#2 153834046#3 153834046#4 153834046#5 153834046#6 153834046#7 153834046#8 153834046#9 153834046#10 153834046#11 153834046#12 153834046#13 153834046#14 153834046#15 153834046#16"/>
    </vehicle>
    <vehicle id="Trip-19" depart="0.00">
        <route edges="32501665#3 32501665#4 50220395#4 50220395#5 50220395#6 50220395#7 54733120#1 54733120#3 54733120#5 54733120#6 54733120#7 54733120#8 54733120#9 54733120#10 54733120#11 54733120#12 54733120#13 54733120#14 54733120#15 724687129#0"/>
    </vehicle>
    <vehicle id="Trip-20" depart="0.00">
        <route edges="24764150#2 24764150#3 24764150#4 24764150#5 24764150#6 24764150#7 24764150#8 38285536#15 38285536#16 38285536#17 38285536#18 38284647#13 38284647#14 38284647#15 38284647#16 28856632#0 28856632#1 28856632#2 28856632#3 28856632#4 28856632#5 28856632#6 28856632#7 28856632#8"/>
    </vehicle>
    <vehicle id="Trip-21" depart="0.00">
        <route edges="38421935#0 38421935#1 38284630#1 38284630#2 38284630#3 28971023#0 28971023#1 28971023#2 28971023#3 38284647#1 38284647#2 38284647#3 38284647#4 38284647#6 38284647#7 38284647#8 38284647#9 54733117#0 54733117#1 38285530#3 38285530#4 38285530#5 38285530#6 38285530#7 38285530#8 38285530#9 38285530#10 689677058 38285536#10 38285536#11 38285536#12 510256970#0 510256970#2 510256970#3 510256970#4 510256970#5 510256970#6 510256970#7 689731686#0 689731686#1 24893934#1 24893934#2 686699155 30066013#1 30066013#2 30066013#3 30066013#4 30066013#5 30066013#6 30066013#7 30066013#8 689731659 34888545#0"/>
    </vehicle>
    <vehicle id="Trip-22" depart="0.00">
        <route edges="30071527 38284630#0 38284630#1 38284630#2 38284630#3 28971023#0 28971023#1 28971023#2 28971023#3 38284647#1 38284647#2 38284647#3 38284647#4 38284647#6 38284647#7 38284647#8 38284647#9 38284647#10 38284647#11 38284647#12 38284647#13 38284647#14 38284647#15 38284647#16 689928611#0 689928611#1 689928611#2 689928611#3 689928611#4 689928611#5 689928611#6 689731672#4 24764150#0 24764150#1 24764150#2"/>
    </vehicle>
    <vehicle id="Trip-23" depart="0.00">
        <route edges="719320360#7 54733120#24 54733120#25 25049020 151170462 38284625 38284622#4 38284622#5 38284622#6 38284622#7 725768768#0 725768768#1 725768768#2 725768768#3 725768768#4 725768768#5 725768768#6 725768768#7 725768768#8 725768768#9 725768768#10 725768768#11 46971896#0 46971896#1 46971896#2 46971896#3 46971896#4 46971896#5 46971896#6 46971896#7 46971896#8 46971896#9 46971896#10 46971896#11 46971896#12 686638877#0"/>
    </vehicle>
    <vehicle id="Trip-24" depart="0.00">
        <route edges="689731686#1 24893934#1 24893934#2 24893934#3 38421931#0 38421931#1 38421931#2 38421931#3 38421931#4 38421931#5 38285536#0 38285536#1"/>
    </vehicle>
    <vehicle id="Trip-25" depart="0.00">
        <route edges="686644927#4 686644927#6 725768768#1 725768768#2 -686638891#4 -686638891#3 -686638891#2 -686638891#1 725384438"/>
    </vehicle>
</routes>
