<?xml version="1.0" encoding="UTF-8"?>

<!-- generated on 2022-06-06 16:00:46 by Eclipse SUMO duarouter Version 1.10.0
<configuration xmlns:xsi="http://www.w3.org/2001/XMLSchema-instance" xsi:noNamespaceSchemaLocation="http://sumo.dlr.de/xsd/duarouterConfiguration.xsd">

    <input>
        <net-file value=".\..\network\cu.net.xml"/>
        <route-files value="trips.trips.xml"/>
    </input>

    <output>
        <output-file value=".\Random-Trips\routes.rou.xml"/>
        <alternatives-output value=".\Random-Trips\routes.rou.alt.xml"/>
    </output>

    <time>
        <begin value="0"/>
        <end value="500"/>
    </time>

    <report>
        <no-warnings value="true"/>
        <ignore-errors value="true"/>
        <no-step-log value="true"/>
    </report>

</configuration>
-->

<routes xmlns:xsi="http://www.w3.org/2001/XMLSchema-instance" xsi:noNamespaceSchemaLocation="http://sumo.dlr.de/xsd/routes_file.xsd">
    <vType id="bus" vClass="bus"/>
    <vehicle id="2" type="bus" depart="0.90">
        <route edges="686638869 -46971896#7 -46971896#6 -46971896#5 -46971896#4 -46971896#3 -46971896#2 -46971896#1 -46971896#0 -725768768#11 -725768768#10 -725768768#9 -725768768#8 -725768768#7 -725768768#6 -725768768#5 -725768768#4 -725768768#3 -725768768#2 -725768768#1 -725768768#0 -38284622#7 -38284622#6 -38284622#5 -38284622#4 -38284622#3 -38284622#2 -38284622#1 -38284622#0"/>
    </vehicle>
    <vType id="passenger" vClass="passenger"/>
    <vehicle id="3" type="passenger" depart="1.80">
        <route edges="32501665#1 32501665#2 32501665#3 32501665#4 50220395#4 50220395#5 50220395#6 50220395#7 54733120#1 54733120#3 54733120#5 54733120#6 38285530#0 38285530#1 38285530#2 38285530#3 38285530#4 38285530#5 38285530#6 38285530#7 38285530#8 38285530#9 38285530#10 38285530#11 38285530#13 38285530#14 38285530#15 38285530#16 38285530#17 38285530#18 38285530#19 38285530#21 38285530#22"/>
    </vehicle>
    <vehicle id="6" type="bus" depart="4.50">
        <route edges="689731672#4 24764150#0 24764150#1 24764150#2 24764150#3 24764150#4 24764150#5 24764150#6 24764150#7 24764150#8 38285536#15 38285536#16 38285536#17 38285536#18 38285536#19 54733120#6 54733120#7 54733120#8 54733120#9 54733120#10 54733120#11 54733120#12 54733120#13 54733120#14 54733120#15 54733120#16 54733120#17 54733120#18 54733120#19 54733120#20 54733120#21 54733120#22 54733120#23 54733120#24 54733120#25 25049020 916598040 174532997#1"/>
    </vehicle>
    <vehicle id="9" type="passenger" depart="7.20">
        <route edges="725809134#14 -725768768#27 -725768768#26 -725768768#25 -725768768#24 -725768768#23 -725768768#22 -725768768#21 -725768768#20 -725768768#19 -725768768#18 -725768768#17 -725768768#16 -725768768#15 -725768768#14 -725768768#13 -725768768#12 46971896#0 46971896#1 46971896#2 46971896#3 46971896#4 46971896#5 46971896#6 46971896#7 46971896#8 46971896#9 46971896#10 46971896#11 46971896#12 46971896#13 46971896#14 46971896#15 46971875"/>
    </vehicle>
    <vehicle id="10" type="bus" depart="8.10">
        <route edges="761931642#1 153834046#0 153834046#1 153834046#2 153834046#3 153834046#4 153834046#5 153834046#6 153834046#7 34888301 689731684#2 689731684#3 766178504 689731686#1 24893934#1 24893934#2 24893934#3 28797819#0 28797819#1 28797819#2 38285536#5 38285536#6 38285536#7 38285536#8 38285536#9 38285536#10 38285536#11 38285536#12 38285536#13 38285536#14 38285536#15 38285536#16 38285536#17 38285536#18 38285536#19 54733120#6 54733120#7 54733120#8 54733120#9 54733120#10 54733120#11 54733120#12 54733120#13 54733120#14 54733120#15 54733120#16 54733120#17 54733120#18 54733120#19 54733120#20 54733120#21 54733120#22 54733120#23 54733120#24 54733120#25 25049020 151170462 38284625 38284622#4 38284622#5 38284622#6 38284622#7 725768768#0 725768768#1 725768768#2 725768768#3 725768768#4 725768768#5 725768768#6 725768768#7 725768768#8 725768768#9 725768768#10 725768768#11 725768768#12 725768768#13 725768768#14 725768768#15 725768768#16 725768768#17 725768768#18 -688596669#5 -688596669#4 -725768759"/>
    </vehicle>
    <vehicle id="12" type="bus" depart="9.90">
        <route edges="30071527 38284630#0 38284630#1 38284630#2 38284630#3 28971023#0 28971023#1 28971023#2 28971023#3 38284647#1 38284647#2 38284647#3 38284647#4 38284647#6 38284647#7 38284647#8 38284647#9 38284647#10 38284647#11 38284647#12 38284647#13 38284647#14 38284647#15 38284647#16 689928611#0 689928611#1 689928611#2 689928611#3 689928611#4 723788230 28856981#0 28856981#1 28856981#2 28856981#3 28856981#4 28856893#1 50219737#2 50219737#3 689731672#0"/>
    </vehicle>
    <vehicle id="13" type="passenger" depart="10.80">
        <route edges="725768768#27 -725768768#27 -725768768#26 -725768768#25 -725768768#24 -725768768#23 -725768768#22 -725768768#21 -725768768#20 -725768768#19 -725768768#18 -725768768#17 -725768768#16 -725768768#15 -725768768#14 -725768768#13 -725768768#12 46971896#0 46971896#1 46971896#2 46971896#3 46971896#4 46971896#5 46971896#6 46971896#7 46971896#8 46971896#9 46971896#10 46971896#11 46971896#12 46971896#13 725768780"/>
    </vehicle>
    <vehicle id="14" type="passenger" depart="11.70">
        <route edges="54733120#1 54733120#3 54733120#5 54733120#6 54733120#7 54733120#8 54733120#9 54733120#10 54733120#11 54733120#12 54733120#13 54733120#14 54733120#15 54733120#16 54733120#17 54733120#18 54733120#19 54733120#20 54733120#21 54733120#22 233125725 -233125859#5 -233125859#4 233125798#0 -233125798#0"/>
    </vehicle>
    <vehicle id="15" type="bus" depart="12.60">
        <route edges="38284630#3 28971023#0 28971023#1 28971023#2 28971023#3 38284647#1 38284647#2 38284647#3 38284647#4 38284647#6 38284647#7 38284647#8 38284647#9 54733117#0 54733117#1 38285530#3 38285530#4 38285530#5 38285530#6 38285530#7 38285530#8 38285530#9 38285530#10 689677058 38285536#10 38285536#11 38285536#12 510256970#0 510256970#2 510256970#3 510256970#4 510256970#5 510256970#6 510256970#7 689731686#0 689731686#1 24893934#1 24893934#2 24893934#3 28797819#0 28797881#0 28797881#1"/>
    </vehicle>
    <vehicle id="16" type="passenger" depart="13.50">
        <route edges="38421931#5 38285536#0 38285536#1 38285536#2 38285536#3 38285536#4 38285536#5 38285536#6 38285536#7 38285536#8 38285536#9 38285536#10 38285536#11 38285536#12 38285536#13 38285536#14 38285536#15 38285536#16 38285536#17 38285536#18 38285536#19 54733120#6 54733120#7 54733120#8 54733120#9 54733120#10 54733120#11 54733120#12 54733120#13 54733120#14 54733120#15 54733120#16 54733120#17 54733120#18 54733120#19 54733120#20 54733120#21 54733120#22 54733120#23 54733120#24 54733120#25 25049020 151170462 38284625 38284622#4 38284622#5 38284622#6 38284622#7 725768768#0 725768768#1 725768768#2 725768768#3 725768768#4 725768768#5 725768768#6 725768768#7 725768768#8 725768768#9 725768768#10 725768768#11 725768768#12 -688594559#4 -688594559#3 -688594559#2 -688594559#1 688594559#1"/>
    </vehicle>
    <vehicle id="17" type="passenger" depart="14.40">
        <route edges="28856776#5 28856893#0 -28856981#4 -28856981#3 -28856981#2 -28856981#1 -28856981#0 903839542#0 903839542#1 903839542#2 903839542#3 903839542#4 903839542#5 903839542#6 54733120#0 54733120#1 54733120#3 54733120#5 54733120#6 54733120#7 54733120#8 54733120#9 54733120#10 54733120#11 54733120#12 54733120#13 54733120#14 54733120#15 54733120#16 54733120#17 54733120#18 54733120#19 54733120#20 54733120#21 54733120#22 54733120#23 54733120#24 174532759#0 174532759#1 174532759#2 174532759#3 174532759#4 174532759#5 174532759#6 38284630#5 38284630#6 38284630#7 -46970326#4 -46970326#3 -46970326#2 46970326#2"/>
    </vehicle>
    <vehicle id="18" type="passenger" depart="15.30">
        <route edges="38284630#2 38284630#3 28971023#0 28971023#1 28971023#2 28971023#3 38284647#1 38284647#2 38284647#3 38284647#4 39887297 54733120#12 54733120#13 54733120#14 54733120#15 54733120#16 54733120#17 54733120#18 54733120#19 54733120#20 54733120#21 54733120#22 54733120#23 54733120#24 54733120#25 25049020 151170462 38284625 38284622#4 38284622#5 38284622#6 38284622#7 725768768#0 725768768#1 725768768#2 725768768#3 725768768#4 725768768#5 725768768#6 725768768#7 725768768#8 725768768#9 725768768#10 725768768#11 725768768#12 725768768#13 725768768#14 725768768#15 725768768#16 725768768#17 725768768#18 725768768#19 725768768#20 -688596684#2 -688596684#1 -688596684#0 688596684#0"/>
    </vehicle>
    <vehicle id="19" type="bus" depart="16.20">
        <route edges="34888245 689731684#3 766178504 689731686#1 24893934#1 24893934#2 24893934#3 28797819#0 28797819#1 28797819#2 38285536#5 38285536#6 38285536#7 38285536#8 38285536#9 38285536#10 38285536#11 38285536#12 38285536#13 38285536#14 38285536#15 38285536#16 38285536#17 38285536#18 38285536#19 54733120#6 54733120#7 54733120#8 54733120#9 54733120#10 54733120#11 54733120#12 54733120#13 54733120#14 54733120#15 54733120#16 54733120#17 54733120#18 54733120#19 54733120#20 54733120#21 54733120#22 54733120#23 54733120#24 174532759#0 174532759#1 174532759#2 174532759#3 174532759#4 174532759#5 174532759#6 38284630#5 38284630#6 38284630#7 38284630#8 915437569 682417505#4"/>
    </vehicle>
    <vehicle id="21" type="bus" depart="18.00">
        <route edges="38285536#5 38285536#6 38285536#7 38285536#8 38285536#9 38285536#10 38285536#11 38285536#12 38285536#13 38285536#14 38285536#15 38285536#16 38285536#17 38285536#18 38285536#19 54733120#6 54733120#7 54733120#8 54733120#9 54733120#10 54733120#11 54733120#12 54733120#13 54733120#14 54733120#15 54733120#16 54733120#17 54733120#18 54733120#19 54733120#20 54733120#21 54733120#22 54733120#23 54733120#24 174532759#0 174532759#1 174532759#2 174532759#3 174532759#4 174532759#5 174532759#6 38284630#5 38284630#6 38284630#7 38284630#8 29420059#0 29420059#1 668463064"/>
    </vehicle>
    <vehicle id="22" type="bus" depart="18.90">
        <route edges="668472051#1 668472051#2 32502142#10 719320360#0 719320360#1 719320360#2 719320360#3 719320360#4 719320360#5 719320360#6 719320360#7 54733120#24 174532759#0 174532759#1 174532759#2 174532759#3 174532759#4 174532759#5 39887295 28971023#1 28971023#2 28971023#3 38284647#1 38284647#2 38284647#3 38284647#4 38284647#6 38284647#7 38284647#8 38284647#9 54733117#0 54733117#1 38285530#3 38285530#4 38285530#5 38285530#6 38285530#7 38285530#8 38285530#9 38285530#10 689677058 38285536#10 38285536#11 38285536#12 510256970#0 510256970#2 510256970#3 510256970#4 510256970#5 510256970#6 510256970#7 689731686#0 689731686#1 24893934#1 24893934#2 24893934#3 28797819#0 28797881#0 -28797891#1 -28797891#0 38285536#4"/>
    </vehicle>
    <vehicle id="23" type="bus" depart="19.80">
        <route edges="233125812#1 233125859#1 233125859#2 233125859#3 233125859#4 719320360#5 719320360#6 719320360#7 54733120#24 54733120#25 25049020 151170462 38284625 38284622#4 38284622#5 38284622#6 38284622#7 725768768#0 725768768#1 725768768#2 725768768#3 725768768#4 725768768#5 725768768#6 725768768#7 725768768#8 725768768#9 725768768#10 725768768#11 725768768#12 725768768#13 725768768#14 725768768#15 725768768#16 725768768#17 725768768#18 725768768#19 725768768#20 725768768#21 725768768#22 725768768#23 725768768#24 46971972#0 46971972#1 46971972#2 46971972#3 46971972#4 46971972#5 46971972#6 46971972#7 46971972#8 690692707"/>
    </vehicle>
    <vehicle id="24" type="passenger" depart="20.70">
        <route edges="30065924 30066013#2 30066013#3 30066013#4 41193583 153834046#4 153834046#5 153834046#6 153834046#7 153834046#8 153834046#9 153834046#10 153834046#11 153834046#12 153834046#13 153834046#14 153834046#15 153834046#16 153834046#17 153834046#18"/>
    </vehicle>
    <vehicle id="26" type="bus" depart="22.50">
        <route edges="32502011#0 32502011#1 -724687133#1 724687125 -724687134#1 -724687134#0 54733120#20 54733120#21 54733120#22 54733120#23 54733120#24 174532759#0 174532759#1 174532759#2 174532759#3 174532759#4 174532759#5 39887295 28971023#1 28971023#2 28971023#3 38284647#1 38284647#2 38284647#3 38284647#4 38284647#6 38284647#7 38284647#8 38284647#9 54733117#0 54733117#1 38285530#3 38285530#4 38285530#5 38285530#6 38285530#7 38285530#8 38285530#9 38285530#10 689677058 38285536#10 38285536#11 38285536#12 510256970#0 510256970#2 510256970#3 510256970#4 510256970#5 510256970#6 510256970#7 689731686#0 689731686#1 24893934#1 153834015 54722592#0 -690188432 54718367#2 -45415949 389856553#2 389856553#3 389856553#4 389856553#5 389856553#6 -192432426#3 -192432426#2 -192432426#1 192432426#1"/>
    </vehicle>
    <vehicle id="27" type="passenger" depart="23.40">
        <route edges="-28856981#5 28856893#1 50219737#2 50219737#3 50219737#4 689731663#0 33823677 686694619 24764150#1 24764150#2 24764150#3 685606030 510256970#6 510256970#7 510256970#8 689731679#0 556525474 153834046#11 153834046#12 153834046#13 153834046#14 -34888306"/>
    </vehicle>
    <vehicle id="28" type="bus" depart="24.30">
        <route edges="-28797881#0 28797819#1 28797819#2 38285536#5 38285536#6 38285536#7 38285536#8 38285536#9 38285536#10 38285536#11 38285536#12 510256970#0 510256970#2 510256970#3 510256970#4 510256970#5 510256970#6 510256970#7 510256970#8 689731679#0 556525474 153834046#11 153834046#12 153834046#13 153834046#14 153834046#15 153834046#16 33823689#0 33823689#1 34888545#3"/>
    </vehicle>
    <vehicle id="29" type="bus" depart="25.20">
        <route edges="38421935#0 38421935#1 38284630#1 38284630#2 38284630#3 28971023#0 28971023#1 28971023#2 28971023#3 38284647#1 38284647#2 38284647#3 38284647#4 38284647#6 38284647#7 38284647#8 38284647#9 38284647#10 38284647#11 38284647#12 38284647#13 38284647#14 38284647#15 38284647#16 689928611#0 689928611#1 689928611#2 689928611#3 689928611#4 689928611#5 689928611#6 689731672#4 24764150#0 24764150#1 24764150#2 24764150#3"/>
    </vehicle>
    <vehicle id="30" type="passenger" depart="26.10">
        <route edges="50220395#1 50220395#3 50220395#4 50220395#5 50220395#6 50220395#7 50220395#8 38284647#16 689928611#0 689928611#1 689928611#2 689928611#3 689928611#4 689928611#5 689928611#6 689731672#4 24764150#0 24764150#1 24764150#2 24764150#3 24764150#4 24764150#5 24764150#6 24764150#7 510256968 510256970#2"/>
    </vehicle>
    <vehicle id="32" type="bus" depart="27.90">
        <route edges="38427387#1 24764157#1 24764157#2 24764150#0 24764150#1 24764150#2 24764150#3 685606030 510256970#6 510256970#7 689731686#0 689731686#1 24893934#1 24893934#2 686699155 30066013#1 30066013#2 -41193355 41193355"/>
    </vehicle>
    <vehicle id="33" type="bus" depart="28.80">
        <route edges="719320360#7 54733120#24 54733120#25 25049020 151170462 38284625 38284622#4 38284622#5 38284622#6 38284622#7 725768768#0 725768768#1 725768768#2 725768768#3 725768768#4 725768768#5 725768768#6 725768768#7 725768768#8 725768768#9 725768768#10 725768768#11 725768768#12 725768768#13 725768768#14 725768768#15 725768768#16 725768768#17 725768768#18 725768768#19 725768768#20 725768768#21 725768768#22 725768768#23 725768768#24 725768768#25 725768768#26 690721682#0 690721682#1 -690692704#1"/>
    </vehicle>
    <vehicle id="35" type="bus" depart="30.60">
        <route edges="30071527 38284630#0 38284630#1 38284630#2 38284630#3 28971023#0 28971023#1 28971023#2 28971023#3 38284647#1 38284647#2 38284647#3 38284647#4 38284647#6 38284647#7 38284647#8 38284647#9 38284647#10 38284647#11 38284647#12 38284647#13 38284647#14 38284647#15 38284647#16 689928611#0 689928611#1 689928611#2 689928611#3 689928611#4 689928611#5 689928611#6 689731672#4 24764150#0 24764150#1 24764150#2"/>
    </vehicle>
    <vehicle id="36" type="passenger" depart="31.50">
        <route edges="54733120#13 54733120#14 54733120#15 54733120#16 54733120#17 54733120#18 54733120#19 54733120#20 54733120#21 54733120#22 54733120#23 54733120#24 54733120#25 25049020 151170462 38284625 38284622#4 38284622#5 38284622#6 38284622#7 725768768#0 -686644927#6 -686644927#4 -686644927#2 686644925"/>
    </vehicle>
    <vehicle id="37" type="bus" depart="32.40">
        <route edges="689731686#1 24893934#1 24893934#2 24893934#3 28797819#0 28797819#1 28797819#2 38285536#5 38285536#6 38285536#7 38285536#8 38285536#9 38285536#10 38285536#11 38285536#12 38285536#13 38285536#14 38285536#15 38285536#16 38285536#17 38285536#18 38285536#19 54733120#6 54733120#7 54733120#8 54733120#9 54733120#10 54733120#11 54733120#12 54733120#13 54733120#14 54733120#15 54733120#16 54733120#17 54733120#18 54733120#19 54733120#20 54733120#21 54733120#22 54733120#23 54733120#24 54733120#25 25049020 151170462 38284625 38284622#4 38284622#5 38284622#6 38284622#7 725768768#0 725768768#1 725768768#2 725768768#3 725768768#4 725768768#5 725768768#6 725768768#7 725768768#8 725768768#9 725768768#10 725768768#11 725768768#12 725768768#13 725768768#14 725768768#15 725768768#16 -725768762#1 -725768762#0 688594560#4 688594560#5 688594560#6 -688596672#2 -688596672#1 -688594562#5 -688594562#4"/>
    </vehicle>
    <vehicle id="38" type="passenger" depart="33.30">
        <route edges="725384439#1 -725384439#1 -725384439#0 725768768#5 725768768#6 725768768#7 725768768#8 -725768768#8"/>
    </vehicle>
    <vehicle id="39" type="bus" depart="34.20">
        <route edges="724687133#0 724687125 -724687134#1 -724687134#0 54733120#20 54733120#21 54733120#22 54733120#23 54733120#24 174532759#0 174532759#1 174532759#2 174532759#3 174532759#4 174532759#5 39887295 28971023#1 28971023#2 28971023#3 38284647#1 38284647#2 38284647#3 38284647#4 38284647#6 38284647#7 38284647#8 38284647#9 38284647#10 38284647#11 38284647#12 38284647#13 38284647#14 38284647#15 38284647#16 689928611#0 689928611#1 689928611#2 689928611#3 689928611#4 723788230 28856981#0 28856981#1 28856981#2 28856981#3 28856981#4 28856893#1 50219737#2 50219737#3 50219737#4 689731663#0 33823677 686694619"/>
    </vehicle>
    <vehicle id="40" type="passenger" depart="35.10">
        <route edges="34888306 153834046#15 153834046#16 153834046#17 153834046#18 153834046#19 153834046#20"/>
    </vehicle>
    <vehicle id="42" type="bus" depart="36.90">
        <route edges="28856969#0 28856969#1 -28856981#1 -28856981#0 903839542#0 903839542#1 903839542#2 903839542#3 903839542#4 903839542#5 903839542#6 54733120#0 54733120#1 54733120#3 54733120#5 54733120#6 54733120#7 54733120#8 54733120#9 54733120#10 54733120#11 54733120#12 54733120#13 54733120#14 54733120#15 54733120#16 54733120#17 54733120#18 54733120#19 54733120#20 54733120#21 54733120#22 54733120#23 54733120#24 174532759#0 174532759#1 174532759#2 174532759#3 174532759#4 174532759#5 174532759#6 38284630#5 38284630#6 38284630#7 38284630#8 915437569 682417505#4 682417505#5 682417505#6 38421936"/>
    </vehicle>
    <vehicle id="44" type="bus" depart="38.70">
        <route edges="-668509993#1 -30082378#2 -30082378#1 -30082378#0 50220395#3 50220395#4 50220395#5 50220395#6 50220395#7 54733120#1 54733120#3 54733120#5 54733120#6 54733120#7 54733120#8 54733120#9 54733120#10 54733120#11 54733120#12 54733120#13 54733120#14 54733120#15 54733120#16 54733120#17 54733120#18 54733120#19 54733120#20 54733120#21 54733120#22 54733120#23 54733120#24 54733120#25 25049020 151170462"/>
    </vehicle>
    <vehicle id="45" type="bus" depart="39.60">
        <route edges="761931642#1 153834046#0 153834046#1 153834046#2 153834046#3 153834046#4 153834046#5 153834046#6 153834046#7 34888301 689731684#2 689731684#3 766178504 689731686#1 24893934#1 24893934#2 24893934#3 28797819#0 28797819#1 28797819#2 38285536#5 38285536#6 38285536#7 38285536#8 38285536#9 38285536#10 38285536#11 38285536#12 38285536#13 38285536#14 38285536#15 38285536#16 38285536#17 38285536#18 38285536#19 54733120#6 54733120#7 54733120#8 54733120#9 54733120#10 54733120#11 54733120#12 54733120#13 54733120#14 54733120#15 54733120#16 54733120#17 54733120#18 54733120#19 54733120#20 54733120#21 54733120#22 54733120#23 54733120#24 54733120#25 25049020 151170462 38284625 38284622#4 38284622#5 38284622#6 38284622#7 725768768#0 725768768#1 725768768#2 725768768#3 725768768#4 725768768#5 725768768#6 725768768#7 725768768#8 725768768#9 -46971823#8 -46971823#7 -46971823#6 -46971823#5 -46971823#4 -46971823#3 -46971823#2 -46971823#1 -46971823#0 -46971762#9 -46971762#8"/>
    </vehicle>
    <vehicle id="46" type="bus" depart="40.50">
        <route edges="38285536#7 38285536#8 38285536#9 38285536#10 38285536#11 38285536#12 38285536#13 38285536#14 38285536#15 38285536#16 38285536#17 38285536#18 38285536#19 54733120#6 54733120#7 54733120#8 54733120#9 54733120#10 54733120#11 54733120#12 54733120#13 54733120#14 54733120#15 54733120#16 54733120#17 54733120#18 54733120#19 54733120#20 54733120#21 54733120#22 54733120#23 54733120#24 174532759#0"/>
    </vehicle>
    <vehicle id="50" type="passenger" depart="44.10">
        <route edges="38421935#0 38421935#1 38284630#1 38284630#2 38284630#3 28971023#0 28971023#1 28971023#2 28971023#3 38284647#1 38284647#2 38284647#3 38284647#4 38284647#6 38284647#7 38284647#8 38284647#9 54733117#0 54733117#1 38285530#3 38285530#4 38285530#5 38285530#6 38285530#7 38285530#8 38285530#9 38285530#10 689677058 38285536#10 38285536#11 38285536#12 510256970#0 510256970#2 510256970#3 510256970#4 510256970#5 510256970#6 510256970#7 689731686#0 689731686#1 24893934#1 24893934#2 686699155 30066013#1 30066013#2 -41193355 41193355"/>
    </vehicle>
    <vehicle id="51" type="passenger" depart="45.00">
        <route edges="28856893#0 -28856981#4 -28856981#3 -28856981#2 -28856981#1 -28856981#0 903839542#0 903839542#1 903839542#2 903839542#3 903839542#4 903839542#5 903839542#6 54733120#0 54733120#1 54733120#3 54733120#5 54733120#6 54733120#7 54733120#8 54733120#9 54733120#10 54733120#11 54733120#12 54733120#13 54733120#14 54733120#15 54733120#16 54733120#17 54733120#18 54733120#19 54733120#20 54733120#21 32502011#0 32502011#1 32502011#2 32502011#3 32502011#4 32502011#5 -233125856#5"/>
    </vehicle>
    <vehicle id="52" type="bus" depart="45.90">
        <route edges="-724732944#1 32501665#3 32501665#4 50220395#4 50220395#5 50220395#6 50220395#7 50220395#8 38284647#16 689928611#0 689928611#1 689928611#2 689928611#3 689928611#4 689928611#5 689928611#6 689731672#4 24764150#0 24764150#1 24764150#2 24764150#3 685606030 510256970#6 510256970#7 689731686#0 689731686#1 24893934#1 24893934#2 24893934#3 38421931#0 38421931#1 38421931#2 38421931#3 38421931#4 38421931#5 38285536#0 38285536#1 38285536#2"/>
    </vehicle>
    <vehicle id="54" type="passenger" depart="47.70">
        <route edges="510256968 510256970#2 54732622 24764150#6 24764150#7 24764150#8 38285536#15 38285536#16 38285536#17 38285536#18 38285536#19 54733120#6 54733120#7 54733120#8 54733120#9 54733120#10 54733120#11 54733120#12 54733120#13 54733120#14 54733120#15 54733120#16 54733120#17 54733120#18 54733120#19 54733120#20 54733120#21 54733120#22 54733120#23 54733120#24 54733120#25 25049020 151170462 38284625 38284622#4 38284622#5 38284622#6 38284622#7 725768768#0 725768768#1 725768768#2 725768768#3 725768768#4 725768768#5 725768768#6 725768768#7 725768768#8 725768768#9 725768768#10 725768768#11 725768768#12 725768768#13 725768768#14 725768768#15 725768768#16 725768768#17 725768768#18 725768768#19 725768768#20 -688596684#2 -688596684#1 -688596684#0 -688637977#5 -688637977#4 -688637977#3 -688637977#2 -688637977#1 -688637977#0 725809134#4 725809134#5"/>
    </vehicle>
    <vehicle id="55" type="passenger" depart="48.60">
        <route edges="30066013#6 30066013#7 689731684#1 689731684#2 689731684#3 766178504 689731686#1 24893934#1 24893934#2 24893934#3 28797819#0 28797819#1 28797819#2 38285536#5 38285536#6 38285536#7 38285536#8 38285536#9 38285536#10 38285536#11 38285536#12 38285536#13 38285536#14 38285536#15 38285536#16 38285536#17 38285536#18 38285536#19 54733120#6 54733120#7 54733120#8 54733120#9 54733120#10 54733120#11 54733120#12 54733120#13 54733120#14 54733120#15 54733120#16 54733120#17 54733120#18 54733120#19 54733120#20 54733120#21 54733120#22 54733120#23 54733120#24 54733120#25 25049020 916598040 174532997#1"/>
    </vehicle>
    <vehicle id="56" type="passenger" depart="49.50">
        <route edges="510256978 38285536#2 38285536#3 38285536#4 38285536#5 38285536#6 38285536#7 38285536#8 38285536#9 38285536#10 38285536#11 38285536#12 510256970#0 510256970#2 510256970#3 510256970#4 510256970#5 510256970#6 510256970#7 510256970#8 689731679#0 689731679#2 24764172#0"/>
    </vehicle>
    <vehicle id="58" type="passenger" depart="51.30">
        <route edges="686693015#2 686693015#3 686693015#4 686693015#5 903839542#0 903839542#1 903839542#2 903839542#3 903839542#4 903839542#5 903839542#6 28856632#1 28856632#2 28856632#3 28856632#4 28856632#5 28856632#6 28856894#0 28856894#1 28856894#2 28856894#3"/>
    </vehicle>
    <vehicle id="59" type="passenger" depart="52.20">
        <route edges="-28856981#3 -28856981#2 -28856981#1 -28856981#0 903839542#0 903839542#1 903839542#2 903839542#3 903839542#4 903839542#5 903839542#6 54733120#0 54733120#1 54733120#3 54733120#5 54733120#6 54733120#7 54733120#8 54733120#9 54733120#10 54733120#11 54733120#12 54733120#13 54733120#14 54733120#15 54733120#16 54733120#17 54733120#18 54733120#19 54733120#20 54733120#21 32502011#0 32502011#1 32502011#2 32502011#3 32502011#4 32502011#5 32502011#6 -233125771 719320360#2"/>
    </vehicle>
    <vehicle id="61" type="passenger" depart="54.00">
        <route edges="50219737#0 50219737#2 50219737#3 689731672#0 689731672#1 686693015#0 686693015#1 686693015#2 686693015#3 686693015#4 686693015#5 903839542#0 903839542#1 903839542#2 903839542#3 903839542#4 903839542#5 903839542#6 54733120#0 54733120#1 54733120#3 54733120#5 54733120#6 54733120#7 54733120#8 54733120#9 54733120#10 54733120#11 54733120#12 54733120#13 54733120#14 54733120#15 54733120#16 54733120#17 54733120#18 54733120#19 54733120#20 54733120#21 54733120#22 54733120#23 54733120#24 174532759#0 174532759#1 174532759#2 174532759#3 174532759#4 174532759#5 39887295 28971023#1 28971023#2"/>
    </vehicle>
    <vehicle id="62" type="bus" depart="54.90">
        <route edges="-46970283#4 668472043#0 668472043#1 668472043#2 32502142#9 32502142#10 719320360#0 719320360#1 719320360#2 719320360#3 719320360#4 719320360#5 719320360#6 719320360#7 54733120#24 174532759#0 233125813#0"/>
    </vehicle>
    <vehicle id="63" type="bus" depart="55.80">
        <route edges="38421935#0 38421935#1 38284630#1 38284630#2 38284630#3 28971023#0 28971023#1 28971023#2 28971023#3 38284647#1 38284647#2 38284647#3 38284647#4 38284647#6 38284647#7 38284647#8 38284647#9 54733117#0 54733117#1 38285530#3 38285530#4 38285530#5 38285530#6 38285530#7 38285530#8 38285530#9 38285530#10 689677058 38285536#10 38285536#11 38285536#12 510256970#0 510256970#2 510256970#3 510256970#4 510256970#5 510256970#6 510256970#7 510256970#8 689731679#0 556525474 153834046#11 153834046#12 153834046#13 153834046#14 153834046#15 153834046#16 153834046#17 153834046#18 153834046#19 34888409#0"/>
    </vehicle>
    <vehicle id="64" type="passenger" depart="56.70">
        <route edges="689677054 38285536#17 38285536#18 38284647#13 38284647#14 38284647#15 38284647#16 689928611#0 689928611#1 689928611#2 689928611#3 689928611#4 689928611#5 689928611#6 689731672#4 24764150#0 24764150#1 24764150#2 24764150#3 685606030 510256970#6 510256970#7 689731686#0 689731686#1 24893934#1"/>
    </vehicle>
    <vehicle id="65" type="bus" depart="57.60">
        <route edges="-233125856#2 -233125856#1 233125812#1 233125812#2 174532759#2 174532759#3 174532759#4 174532759#5 39887295 28971023#1 28971023#2 28971023#3 38284647#1 38284647#2 38284647#3 38284647#4 38284647#6 38284647#7 38284647#8 38284647#9 54733117#0 54733117#1 38285530#3 38285530#4 38285530#5 38285530#6 38285530#7 38285530#8 38285530#9 38285530#10 689677058 38285536#10 38285536#11 38285536#12 510256970#0 510256970#2 510256970#3 510256970#4 510256970#5 510256970#6 510256970#7 510256970#8 689731679#0"/>
    </vehicle>
    <vehicle id="66" type="bus" depart="58.50">
        <route edges="-690692700#2 -690692700#1 -690692700#0 690692706#1 -725809134#6 -725809134#5 -725809134#4 -725809134#3 -725809134#2 -725809134#1 -725809134#0 -46971762#14 -46971762#13 -46971762#12 -46971762#11 -46971762#10"/>
    </vehicle>
    <vehicle id="69" type="passenger" depart="61.20">
        <route edges="28856632#6 28856894#0 28856894#1 28856894#2 28856894#3 28856894#4 28856894#5 -28856981#3 -28856981#2 -28856981#1 -28856981#0 903839542#0 903839542#1 903839542#2 903839542#3 903839542#4 903839542#5 903839542#6 54733120#0 54733120#1 54733120#3 54733120#5 54733120#6 54733120#7 54733120#8 54733120#9 54733120#10 54733120#11 54733120#12 54733120#13 54733120#14 54733120#15 54733120#16 54733120#17 54733120#18 54733120#19 54733120#20 54733120#21 54733120#22 54733120#23 54733120#24 174532759#0 174532759#1 174532759#2 174532759#3 174532759#4 174532759#5 39887295 28971023#1 28971023#2 28971023#3 38284647#1 38284647#2"/>
    </vehicle>
    <vehicle id="71" type="passenger" depart="63.00">
        <route edges="30066013#2 30066013#3 30066013#4 30066013#5 30066013#6 30066013#7 689731684#1 689731684#2 689731684#3 766178504 689731686#1 24893934#1 24893934#2 24893934#3 28797819#0 28797819#1 28797819#2 38285536#5 38285536#6 38285536#7 38285536#8 38285536#9 38285536#10 38285536#11 38285536#12 38285536#13 38285536#14 38285536#15 38285536#16 38285536#17 38285536#18 38285536#19 54733120#6 54733120#7 54733120#8 54733120#9 54733120#10 54733120#11 54733120#12 54733120#13 54733120#14 54733120#15 54733120#16 54733120#17 54733120#18 54733120#19 54733120#20 54733120#21 32502011#0 32502011#1 32502011#2 32502011#3 32502011#4 32502011#5 32502011#6 32502011#7 233125692"/>
    </vehicle>
    <vehicle id="77" type="passenger" depart="68.40">