<?xml version="1.0" encoding="UTF-8"?>
<!-- generated on 2022-07-03 23:36:59.899149 by main.py v1_10_0+0000-83496a5972
  options: <doubleminus>odEdges ./odEdges.txt <doubleminus>clientPercentage 10
-->
<routes xmlns:xsi="http://www.w3.org/2001/XMLSchema-instance" xsi:noNamespaceSchemaLocation="http://sumo.dlr.de/xsd/routes_file.xsd">
    <trip id="Trip-1" depart="0.00" from="38285536#7" to="54733120#23"/>
    <trip id="Trip-2" depart="0.00" from="-46970326#4" to="54733120#22"/>
    <trip id="Trip-3" depart="0.00" from="153834046#8" to="510256968"/>
    <trip id="Trip-4" depart="0.00" from="-38284622#0" to="-725809134#7"/>
    <trip id="Trip-5" depart="0.00" from="50219737#0" to="724687136#0"/>
    <trip id="Trip-6" depart="0.00" from="689928611#1" to="510256970#6"/>
    <trip id="Trip-7" depart="0.00" from="153834046#5" to="510256970#0"/>
    <trip id="Trip-8" depart="0.00" from="28856894#3" to="-48981675#2"/>
    <trip id="Trip-9" depart="0.00" from="510256970#2" to="38285536#5"/>
    <trip id="Trip-10" depart="0.00" from="38427387#0" to="510256970#7"/>
    <trip id="Trip-11" depart="0.00" from="-28856981#4" to="725768768#30"/>
    <trip id="Trip-12" depart="0.00" from="38284647#15" to="668472056#2"/>
    <trip id="Trip-13" depart="0.00" from="38285536#0" to="-233125771"/>
    <trip id="Trip-14" depart="0.00" from="34888306" to="153834046#20"/>
    <trip id="Trip-15" depart="0.00" from="-28856981#5" to="688596687"/>
    <trip id="Trip-16" depart="0.00" from="38421935#0" to="682417505#4"/>
    <trip id="Trip-17" depart="0.00" from="24893934#0" to="-28856969#1"/>
    <trip id="Trip-18" depart="0.00" from="30066013#6" to="174532997#1"/>
    <trip id="Trip-19" depart="0.00" from="41193433" to="54733120#13"/>
    <trip id="Trip-20" depart="0.00" from="38284630#5" to="-38284622#0"/>
    <trip id="Trip-21" depart="0.00" from="-233125813#1" to="38284647#3"/>
    <trip id="Trip-22" depart="0.00" from="38421935#1" to="-28797891#1"/>
    <trip id="Trip-23" depart="0.00" from="38284630#7" to="-686638888"/>
    <trip id="Trip-24" depart="0.00" from="46971762#10" to="46971762#10"/>
    <trip id="Trip-25" depart="0.00" from="510256970#5" to="686638894#2"/>
    <trip id="Trip-26" depart="0.00" from="-28797881#1" to="32502011#14"/>
    <trip id="Trip-27" depart="0.00" from="46971972#10" to="-688594561#0"/>
    <trip id="Trip-28" depart="0.00" from="-668472056#0" to="38285530#8"/>
    <trip id="Trip-29" depart="0.00" from="686693015#2" to="28856894#3"/>
    <trip id="Trip-30" depart="0.00" from="32502011#0" to="192432426#1"/>
    <trip id="Trip-31" depart="0.00" from="38285536#7" to="174532759#0"/>
    <trip id="Trip-32" depart="0.00" from="761931642#0" to="48981689#1"/>
    <trip id="Trip-33" depart="0.00" from="38427387#1" to="28797881#2"/>
    <trip id="Trip-34" depart="0.00" from="-46970283#1" to="32502122#2"/>
    <trip id="Trip-35" depart="0.00" from="-46970326#4" to="-48981675#3"/>
    <trip id="Trip-36" depart="0.00" from="28856893#1" to="-233125812#0"/>
    <trip id="Trip-37" depart="0.00" from="54733120#1" to="38427034#1"/>
    <trip id="Trip-38" depart="0.00" from="28856952#1" to="-28856981#1"/>
    <trip id="Trip-39" depart="0.00" from="38284630#5" to="38284647#15"/>
    <trip id="Trip-40" depart="0.00" from="689928611#1" to="-725809134#10"/>
    <trip id="Trip-41" depart="0.00" from="174532664#0" to="-776009865"/>
    <trip id="Trip-42" depart="0.00" from="24893934#2" to="38421936"/>
    <trip id="Trip-43" depart="0.00" from="-668472058#0" to="38285536#6"/>
    <trip id="Trip-44" depart="0.00" from="38285536#5" to="32502011#0"/>
    <trip id="Trip-45" depart="0.00" from="32501665#1" to="38285530#22"/>
    <trip id="Trip-46" depart="0.00" from="38421935#0" to="41193355"/>
    <trip id="Trip-47" depart="0.00" from="724732943#1" to="-46970334#3"/>
    <trip id="Trip-48" depart="0.00" from="-725809134#0" to="-725446133"/>
    <trip id="Trip-49" depart="0.00" from="32502011#8" to="-38284622#4"/>
    <trip id="Trip-50" depart="0.00" from="-724687125" to="668472051#2"/>
    <trip id="Trip-51" depart="0.00" from="54722592#0" to="50219737#4"/>
    <trip id="Trip-52" depart="0.00" from="-192432426#1" to="-34888245"/>
    <trip id="Trip-53" depart="0.00" from="38421935#0" to="668472049"/>
    <trip id="Trip-54" depart="0.00" from="233125798#0" to="668472053#1"/>
    <trip id="Trip-55" depart="0.00" from="38285536#5" to="50219737#4"/>
    <trip id="Trip-56" depart="0.00" from="38421931#4" to="725768768#17"/>
    <trip id="Trip-57" depart="0.00" from="38284630#5" to="38284619#7"/>
    <trip id="Trip-58" depart="0.00" from="-723996093" to="28856981#5"/>
    <trip id="Trip-59" depart="0.00" from="-690200121" to="-686638881#2"/>
    <trip id="Trip-60" depart="0.00" from="153834046#2" to="-725440421"/>
    <trip id="Trip-61" depart="0.00" from="689731686#1" to="-688594562#4"/>
    <trip id="Trip-62" depart="0.00" from="30066013#2" to="38285536#0"/>
    <trip id="Trip-63" depart="0.00" from="38427387#0" to="-688592563#0"/>
    <trip id="Trip-64" depart="0.00" from="725446135#3" to="-688594560#1"/>
    <trip id="Trip-65" depart="0.00" from="38284630#8" to="38427034#1"/>
    <trip id="Trip-66" depart="0.00" from="54718367#0" to="-688594562#5"/>
    <trip id="Trip-67" depart="0.00" from="28797819#1" to="153834046#8"/>
    <trip id="Trip-68" depart="0.00" from="-192432426#0" to="903839542#2"/>
    <trip id="Trip-69" depart="0.00" from="24764150#2" to="28856632#8"/>
    <trip id="Trip-70" depart="0.00" from="50219737#0" to="30066013#6"/>
    <trip id="Trip-71" depart="0.00" from="-668509990#1" to="24764172#0"/>
    <trip id="Trip-72" depart="0.00" from="28856632#6" to="38284647#2"/>
    <trip id="Trip-73" depart="0.00" from="38284622#0" to="-725446133"/>
    <trip id="Trip-74" depart="0.00" from="725384442" to="688592562#2"/>
    <trip id="Trip-75" depart="0.00" from="32501665#0" to="-686638869"/>
    <trip id="Trip-76" depart="0.00" from="54733120#1" to="-233125798#0"/>
    <trip id="Trip-77" depart="0.00" from="28856981#2" to="48981707"/>
    <trip id="Trip-78" depart="0.00" from="30066013#2" to="233125692"/>
    <trip id="Trip-79" depart="0.00" from="38421935#0" to="153834046#17"/>
    <trip id="Trip-80" depart="0.00" from="38284647#1" to="-233125812#2"/>
    <trip id="Trip-81" depart="0.00" from="28800882" to="38285536#0"/>
    <trip id="Trip-82" depart="0.00" from="668509993#0" to="28856893#0"/>
    <trip id="Trip-83" depart="0.00" from="28856894#0" to="-46970326#3"/>
    <trip id="Trip-84" depart="0.00" from="24893934#0" to="41193355"/>
    <trip id="Trip-85" depart="0.00" from="32501674#2" to="233125798#0"/>
    <trip id="Trip-86" depart="0.00" from="-686638885#0" to="-688594554"/>
    <trip id="Trip-87" depart="0.00" from="24893934#1" to="-686638876#3"/>
    <trip id="Trip-88" depart="0.00" from="-719320359" to="689731679#0"/>
    <trip id="Trip-89" depart="0.00" from="32502011#8" to="688594554"/>
    <trip id="Trip-90" depart="0.00" from="-725809134#13" to="-725768768#26"/>
    <trip id="Trip-91" depart="0.00" from="38285536#3" to="28856981#5"/>
    <trip id="Trip-92" depart="0.00" from="-690692700#2" to="-46971762#10"/>
    <trip id="Trip-93" depart="0.00" from="-724732945#2" to="-668472051#0"/>
    <trip id="Trip-94" depart="0.00" from="233125771" to="34888409#0"/>
    <trip id="Trip-95" depart="0.00" from="153834046#6" to="668472043#2"/>
    <trip id="Trip-96" depart="0.00" from="38285536#17" to="34888545#5"/>
    <trip id="Trip-97" depart="0.00" from="30082378#4" to="32502011#15"/>
    <trip id="Trip-98" depart="0.00" from="54718367#0" to="-724687135#2"/>
    <trip id="Trip-99" depart="0.00" from="689731663#1" to="686693015#2"/>
    <trip id="Trip-100" depart="0.00" from="-28856981#4" to="686638875"/>
</routes>
