<?xml version="1.0" encoding="UTF-8"?>

<!-- generated on 2022-07-07 12:15:36 by Eclipse SUMO duarouter Version 1.10.0
<configuration xmlns:xsi="http://www.w3.org/2001/XMLSchema-instance" xsi:noNamespaceSchemaLocation="http://sumo.dlr.de/xsd/duarouterConfiguration.xsd">

    <input>
        <net-file value="./../network/cu.net.xml"/>
        <route-files value="./35PercentClient/trips.trips.xml"/>
    </input>

    <output>
        <output-file value="./35PercentClient/routes.rou.xml"/>
        <alternatives-output value="./35PercentClient/routes.rou.alt.xml"/>
    </output>

    <time>
        <begin value="0"/>
        <end value="3600"/>
    </time>

    <report>
        <no-warnings value="true"/>
        <ignore-errors value="true"/>
        <no-step-log value="true"/>
    </report>

</configuration>
-->

<routes xmlns:xsi="http://www.w3.org/2001/XMLSchema-instance" xsi:noNamespaceSchemaLocation="http://sumo.dlr.de/xsd/routes_file.xsd">
    <vehicle id="Trip-1" depart="0.00">
        <route edges="38285536#7 38285536#8 38285536#9 38285536#10 38285536#11 38285536#12 38285536#13 38285536#14 38285536#15 38285536#16 38285536#17 38285536#18 38285536#19 54733120#6 54733120#7 54733120#8 54733120#9 54733120#10 54733120#11 54733120#12 54733120#13 54733120#14 54733120#15 54733120#16 54733120#17 54733120#18 54733120#19 54733120#20 54733120#21 54733120#22 54733120#23"/>
    </vehicle>
    <vehicle id="Trip-2" depart="0.00">
        <route edges="-46970326#4 -46970326#3 -46970326#2 -46970326#1 -46970326#0 38284619#2 38284619#3 38284619#4 38284619#5 38284619#6 38284619#7 233125859#0 233125859#1 233125859#2 233125859#3 233125859#4 233125859#5 233125859#6 32502011#3 -724687136#1 -724687136#0 54733120#15 54733120#16 54733120#17 54733120#18 54733120#19 54733120#20 54733120#21 54733120#22"/>
    </vehicle>
    <vehicle id="Trip-3" depart="0.00">
        <route edges="153834046#8 34888245 689731684#3 766178504 689731686#1 24893934#1 24893934#2 24893934#3 28797819#0 28797819#1 28797819#2 38285536#5 38285536#6 38285536#7 38285536#8 38285536#9 38285536#10 38285536#11 38285536#12 510256970#0 510256970#2 54732622 24764150#6 24764150#7 510256968"/>
    </vehicle>
    <vehicle id="Trip-4" depart="0.00">
        <route edges="-38284622#0 38284622#0 38284622#1 38284622#2 38284622#3 38284622#4 38284622#5 38284622#6 38284622#7 725768768#0 725768768#1 725768768#2 725768768#3 725768768#4 725768768#5 725768768#6 725768768#7 725768768#8 725768768#9 725768768#10 725768768#11 725768768#12 725768768#13 725768768#14 725768768#15 725768768#16 725768768#17 725768768#18 725768768#19 725768768#20 725768768#21 725768768#22 725768768#23 725768768#24 725768768#25 725768768#26 690721682#0 690721682#1 690721682#2 690692705#3 -725809134#10 -725809134#9 -725809134#8 -725809134#7"/>
    </vehicle>
    <vehicle id="Trip-5" depart="0.00">
        <route edges="50219737#0 50219737#2 50219737#3 689731672#0 689731672#1 686693015#0 686693015#1 686693015#2 686693015#3 686693015#4 686693015#5 903839542#0 903839542#1 903839542#2 903839542#3 903839542#4 903839542#5 903839542#6 54733120#0 54733120#1 54733120#3 54733120#5 54733120#6 54733120#7 54733120#8 54733120#9 54733120#10 54733120#11 54733120#12 54733120#13 54733120#14 724687136#0"/>
    </vehicle>
    <vehicle id="Trip-6" depart="0.00">
        <route edges="689928611#1 689928611#2 689928611#3 689928611#4 689928611#5 689928611#6 689731672#4 24764150#0 24764150#1 24764150#2 24764150#3 685606030 510256970#6"/>
    </vehicle>
    <vehicle id="Trip-7" depart="0.00">
        <route edges="153834046#5 153834046#6 153834046#7 34888301 689731684#2 689731684#3 766178504 689731686#1 24893934#1 24893934#2 24893934#3 28797819#0 28797819#1 28797819#2 38285536#5 38285536#6 38285536#7 38285536#8 38285536#9 38285536#10 38285536#11 38285536#12 510256970#0"/>
    </vehicle>
    <vehicle id="Trip-8" depart="0.00">
        <route edges="28856894#3 28856894#4 28856894#5 -28856981#3 -28856981#2 -28856981#1 -28856981#0 903839542#0 903839542#1 903839542#2 903839542#3 903839542#4 903839542#5 903839542#6 54733120#0 54733120#1 54733120#3 54733120#5 54733120#6 54733120#7 54733120#8 54733120#9 54733120#10 54733120#11 54733120#12 54733120#13 54733120#14 54733120#15 54733120#16 54733120#17 54733120#18 54733120#19 54733120#20 54733120#21 54733120#22 54733120#23 54733120#24 174532759#0 174532759#1 174532759#2 174532759#3 174532759#4 174532759#5 174532759#6 38284630#5 38284630#6 38284630#7 38284630#8 29420059#0 29420059#1 29420059#2 754177479#0 754177479#1 -48981675#3 -48981675#2"/>
    </vehicle>
    <vehicle id="Trip-9" depart="0.00">
        <route edges="510256970#2 510256970#3 510256970#4 510256970#5 510256970#6 510256970#7 689731686#0 689731686#1 24893934#1 24893934#2 24893934#3 28797819#0 28797819#1 28797819#2 38285536#5"/>
    </vehicle>
    <vehicle id="Trip-10" depart="0.00">
        <route edges="38427387#0 38427387#1 24764157#1 24764157#2 24764150#0 24764150#1 24764150#2 24764150#3 685606030 510256970#6 510256970#7"/>
    </vehicle>
    <vehicle id="Trip-11" depart="0.00">
        <route edges="30066013#3 30066013#4 30066013#5 30066013#6 30066013#7 689731684#1 689731684#2 689731684#3 766178504 689731686#1 24893934#1 24893934#2 24893934#3 28797819#0 28797819#1 28797819#2 38285536#5 38285536#6 38285536#7 38285536#8 38285536#9 38285536#10 38285536#11 38285536#12 38285536#13 38285536#14 38285536#15 38285536#16 38285536#17 38285536#18 38285536#19 54733120#6 54733120#7 54733120#8 54733120#9 54733120#10 54733120#11 54733120#12 54733120#13 54733120#14 54733120#15 54733120#16 54733120#17 54733120#18 54733120#19 54733120#20 54733120#21 54733120#22 54733120#23 54733120#24 174532759#0 174532759#1 174532759#2 174532759#3 174532759#4 174532759#5 174532759#6 38284630#5 38284630#6 38284630#7"/>
    </vehicle>
    <vehicle id="Trip-12" depart="0.00">
        <route edges="-686638878 686638878 -46971896#13 686638877#0 686638877#1 686638877#2 -686638877#2"/>
    </vehicle>
    <vehicle id="Trip-13" depart="0.00">
        <route edges="46971762#10"/>
    </vehicle>
    <vehicle id="Trip-14" depart="0.00">
        <route edges="28856632#6 28856894#0 28856894#1 28856894#2 28856894#3 28856894#4 28856894#5 28856981#4 28856893#1 50219737#2 50219737#3 50219737#4 689731663#0 33823677 686694619 24764150#1 24764150#2 24764150#3 685606030 510256970#6 510256970#7 689731686#0"/>
    </vehicle>
    <vehicle id="Trip-15" depart="0.00">
        <route edges="28856893#1 50219737#2 50219737#3 689731672#0 689731672#1 686693015#0 686693015#1 686693015#2 686693015#3 686693015#4 686693015#5 903839542#0 903839542#1 903839542#2 903839542#3 903839542#4 903839542#5 903839542#6 54733120#0 54733120#1 54733120#3 54733120#5 54733120#6 54733120#7 54733120#8 54733120#9 54733120#10 54733120#11 54733120#12 54733120#13 54733120#14 54733120#15 54733120#16 54733120#17 54733120#18 54733120#19 54733120#20 54733120#21 54733120#22 54733120#23 54733120#24 174532759#0 174532759#1 -233125812#2 -233125812#1 -233125812#0"/>
    </vehicle>
    <vehicle id="Trip-16" depart="0.00">
        <route edges="46971972#10 46971972#11 -688637978 -46971960#11 -46971960#10 -46971960#9 -46971960#8 -46971960#7 -46971960#6 -46971960#5 -46971960#4 -46971960#3 -46971960#2 -46971960#1 -46971960#0 -725768768#23 -725768768#22 -725768768#21 -725768768#20 -725768768#19 -725768768#18 -725768768#17 -725768768#16 -725768768#15 -725768768#14 -725768768#13 -688594559#4 -688594559#3 -688594559#2 -688594561#0"/>
    </vehicle>
    <vehicle id="Trip-17" depart="0.00">
        <route edges="30082378#4 724732943#1 32501665#0 32501665#1 32501665#2 32501665#3 32501665#4 50220395#4 50220395#5 50220395#6 50220395#7 54733120#1 54733120#3 54733120#5 54733120#6 54733120#7 54733120#8 54733120#9 54733120#10 54733120#11 54733120#12 54733120#13 54733120#14 54733120#15 54733120#16 54733120#17 54733120#18 54733120#19 54733120#20 54733120#21 32502011#0 32502011#1 32502011#2 32502011#3 32502011#4 32502011#5 32502011#6 32502011#7 32502011#8 32502011#9 32502011#10 32502011#11 32502011#12 32502011#13 32502011#14 32502011#15"/>
    </vehicle>
    <vehicle id="Trip-18" depart="0.00">
        <route edges="-233125813#2 -233125813#1 -233125813#0 174532759#1 174532759#2 174532759#3 174532759#4 174532759#5 39887295 28971023#1 28971023#2 28971023#3 38284647#1 38284647#2 38284647#3 38284647#4 38284647#6 38284647#7 38284647#8 38284647#9 54733117#0 54733117#1 38285530#3 38285530#4 38285530#5 38285530#6 38285530#7 38285530#8 38285530#9 38285530#10 689677058 38285536#10 38285536#11 38285536#12 510256970#0 510256970#2 510256970#3 510256970#4 510256970#5 510256970#6 510256970#7 689731686#0 689731686#1 24893934#1 24893934#2 24893934#3 28797819#0 28797819#1"/>
    </vehicle>
    <vehicle id="Trip-19" depart="0.00">
        <route edges="-46971762#0 46971762#0 46971762#1 46971762#2 46971762#3 46971762#4 46971762#5 46971762#6 46971762#7 46971762#8 46971762#9 46971762#10 46971762#11 46971762#12 46971762#13 46971762#14 -46971762#14"/>
    </vehicle>
    <vehicle id="Trip-20" depart="0.00">
        <route edges="28971023#1 28971023#2 28971023#3 38284647#1 38284647#2 38284647#3 38284647#4 38284647#6 38284647#7 38284647#8 38284647#9 54733117#0 54733117#1 38285530#3 38285530#4 38285530#5 38285530#6 38285530#7 38285530#8 38285530#9 38285530#10 689677058 38285536#10 38285536#11 38285536#12 510256970#0 510256970#2 510256970#3 510256970#4 510256970#5 510256970#6 510256970#7 510256970#8 689731679#0 556525474 153834046#11 153834046#12 153834046#13 153834046#14 153834046#15 153834046#16 153834046#17 153834046#18 153834046#19 153834046#20"/>
    </vehicle>
    <vehicle id="Trip-21" depart="0.00">
        <route edges="38421935#0 38421935#1 38284630#1 38284630#2 38284630#3 28971023#0 28971023#1 28971023#2 28971023#3 38284647#1 38284647#2 38284647#3 38284647#4 38284647#6 38284647#7 38284647#8 38284647#9 54733117#0 54733117#1 38285530#3 38285530#4 38285530#5 38285530#6 38285530#7 38285530#8 38285530#9 38285530#10 689677058 38285536#10 38285536#11 38285536#12 510256970#0 510256970#2 510256970#3 510256970#4 510256970#5 510256970#6 510256970#7 689731686#0 689731686#1 24893934#1 24893934#2 686699155 30066013#1 30066013#2 30066013#3 30066013#4 30066013#5 30066013#6 30066013#7 30066013#8 689731659 34888545#0"/>
    </vehicle>
    <vehicle id="Trip-22" depart="0.00">
        <route edges="54733120#1 54733120#3 54733120#5 54733120#6 54733120#7 54733120#8 54733120#9 54733120#10 54733120#11 54733120#12 54733120#13 54733120#14 54733120#15 54733120#16 54733120#17 54733120#18 54733120#19 54733120#20 54733120#21 54733120#22 233125725 -233125859#5 -233125859#4 233125798#0 -233125798#0"/>
    </vehicle>
    <vehicle id="Trip-23" depart="0.00">
        <route edges="54722592#0 -690188432 54718367#2 -45415949 389856553#2 389856553#3 389856553#4 389856553#5 523721000 38421931#1 -28797885#1 -28797885#0 28797819#1 28797819#2 38285536#5 38285536#6 38285536#7 38285536#8 38285536#9 38285536#10 38285536#11 38285536#12 38285536#13 38285536#14 38285536#15 38285536#16 38285536#17 38285536#18 38285536#19 54733120#6 54733120#7 54733120#8 54733120#9 54733120#10 54733120#11 54733120#12 54733120#13 54733120#14 54733120#15 54733120#16 54733120#17 54733120#18 54733120#19 54733120#20 54733120#21 54733120#22 54733120#23 54733120#24 174532759#0 174532759#1 174532759#2 174532759#3 174532759#4 174532759#5 174532759#6 38284630#5 38284630#6 38284630#7 38284630#8 29420059#0 29420059#1 668463064 719666839#1"/>
    </vehicle>
    <vehicle id="Trip-24" depart="0.00">
        <route edges="38285536#5 38285536#6 38285536#7 38285536#8 38285536#9 38285536#10 38285536#11 38285536#12 38285536#13 38285536#14 38285536#15 38285536#16 38285536#17 38285536#18 38284647#13 38284647#14 38284647#15 38284647#16 689928611#0 689928611#1 689928611#2 689928611#3 689928611#4 723788230 28856981#0 28856981#1 28856981#2 28856981#3 28856981#4 28856893#1 50219737#2 50219737#3 50219737#4 689731663#0 689731663#1"/>
    </vehicle>
    <vehicle id="Trip-25" depart="0.00">
        <route edges="50220395#4 50220395#5 50220395#6 50220395#7 54733120#1 54733120#3 54733120#5 54733120#6 54733120#7 54733120#8 54733120#9 54733120#10 54733120#11 54733120#12 54733120#13 54733120#14 54733120#15 54733120#16 54733120#17 54733120#18 54733120#19 54733120#20 54733120#21 54733120#22 54733120#23 54733120#24 54733120#25 25049020 151170462 38284625 38284622#4 38284622#5 38284622#6 38284622#7 725768768#0 725768768#1 725768768#2 725768768#3 725768768#4 725768768#5 725768768#6 725768768#7 725768768#8 725768768#9 725768768#10 725768768#11 725768768#12 725768768#13 725768768#14 725768768#15 725768768#16 725768768#17 725768768#18 725768768#19 -725446136#1 -725446136#0 -686638871#0"/>
    </vehicle>
    <vehicle id="Trip-26" depart="0.00">
        <route edges="38284624 38284647#0 38284647#1 38284647#2 38284647#3 38284647#4 39887297 54733120#12 54733120#13 54733120#14 54733120#15 54733120#16 54733120#17 54733120#18 54733120#19 54733120#20 54733120#21 54733120#22 233125725 -233125859#5 -233125859#4 -233125859#3 -233125792#1 -233125792#0"/>
    </vehicle>
    <vehicle id="Trip-27" depart="0.00">
        <route edges="38284622#0 38284622#1 38284622#2 38284622#3 38284622#4 38284622#5 38284622#6 38284622#7 725768768#0 725768768#1 725768768#2 725768768#3 725768768#4 725768768#5 725768768#6 725768768#7 725768768#8 725768768#9 725768768#10 725768768#11 725768768#12 725768768#13 725768768#14 725768768#15 725768768#16 -725768762#1 -725768762#0 -688594560#3 725768763"/>
    </vehicle>
    <vehicle id="Trip-28" depart="0.00">
        <route edges="32501665#1 32501665#2 32501665#3 32501665#4 50220395#4 50220395#5 50220395#6 50220395#7 54733120#1 54733120#3 54733120#5 54733120#6 38285530#0 38285530#1 38285530#2 38285530#3 38285530#4 38285530#5 38285530#6 38285530#7 38285530#8 38285530#9 38285530#10 38285530#11 38285530#13 38285530#14 38285530#15 38285530#16 38285530#17 38285530#18 38285530#19 38285530#21 38285530#22"/>
    </vehicle>
</routes>
