<?xml version="1.0" encoding="UTF-8"?>
<!-- generated on 2022-07-07 12:15:35.857606 by main.py v1_10_0+0000-83496a5972
  options: <doubleminus>odEdges ./odEdges.txt <doubleminus>clientPercentage 35
-->
<routes xmlns:xsi="http://www.w3.org/2001/XMLSchema-instance" xsi:noNamespaceSchemaLocation="http://sumo.dlr.de/xsd/routes_file.xsd">
    <trip id="Trip-1" depart="0.00" from="38285536#7" to="54733120#23"/>
    <trip id="Trip-2" depart="0.00" from="-46970326#4" to="54733120#22"/>
    <trip id="Trip-3" depart="0.00" from="153834046#8" to="510256968"/>
    <trip id="Trip-4" depart="0.00" from="-38284622#0" to="-725809134#7"/>
    <trip id="Trip-5" depart="0.00" from="50219737#0" to="724687136#0"/>
    <trip id="Trip-6" depart="0.00" from="689928611#1" to="510256970#6"/>
    <trip id="Trip-7" depart="0.00" from="153834046#5" to="510256970#0"/>
    <trip id="Trip-8" depart="0.00" from="28856894#3" to="-48981675#2"/>
    <trip id="Trip-9" depart="0.00" from="510256970#2" to="38285536#5"/>
    <trip id="Trip-10" depart="0.00" from="38427387#0" to="510256970#7"/>
    <trip id="Trip-11" depart="0.00" from="30066013#3" to="38284630#7"/>
    <trip id="Trip-12" depart="0.00" from="-686638878" to="-686638877#2"/>
    <trip id="Trip-13" depart="0.00" from="46971762#10" to="46971762#10"/>
    <trip id="Trip-14" depart="0.00" from="28856632#6" to="689731686#0"/>
    <trip id="Trip-15" depart="0.00" from="28856893#1" to="-233125812#0"/>
    <trip id="Trip-16" depart="0.00" from="46971972#10" to="-688594561#0"/>
    <trip id="Trip-17" depart="0.00" from="30082378#4" to="32502011#15"/>
    <trip id="Trip-18" depart="0.00" from="-233125813#2" to="28797819#1"/>
    <trip id="Trip-19" depart="0.00" from="-46971762#0" to="-46971762#14"/>
    <trip id="Trip-20" depart="0.00" from="28971023#1" to="153834046#20"/>
    <trip id="Trip-21" depart="0.00" from="38421935#0" to="34888545#0"/>
    <trip id="Trip-22" depart="0.00" from="54733120#1" to="-233125798#0"/>
    <trip id="Trip-23" depart="0.00" from="54722592#0" to="719666839#1"/>
    <trip id="Trip-24" depart="0.00" from="38285536#5" to="689731663#1"/>
    <trip id="Trip-25" depart="0.00" from="50220395#4" to="-686638871#0"/>
    <trip id="Trip-26" depart="0.00" from="38284624" to="-233125792#0"/>
    <trip id="Trip-27" depart="0.00" from="38284622#0" to="725768763"/>
    <trip id="Trip-28" depart="0.00" from="32501665#1" to="38285530#22"/>
</routes>
