<?xml version="1.0" encoding="UTF-8"?>

<!-- generated on 2021-11-11 00:26:27 by Eclipse SUMO netedit Version 1.10.0
<configuration xmlns:xsi="http://www.w3.org/2001/XMLSchema-instance" xsi:noNamespaceSchemaLocation="http://sumo.dlr.de/xsd/netconvertConfiguration.xsd">

    <input>
        <sumo-net-file value="Y:\Aerospace\AeroSpace%204\UAV%20Traffic%20Control%20Project\Traffic%20Simulation\SUMO%20Cairo%20University\cu.net.xml"/>
    </input>

    <output>
        <output-file value="Y:\Aerospace\AeroSpace%204\UAV%20Traffic%20Control%20Project\Traffic%20Simulation\SUMO%20Cairo%20University\cu.net.xml"/>
    </output>

    <processing>
        <geometry.min-radius.fix.railways value="false"/>
        <geometry.max-grade.fix value="false"/>
        <offset.disable-normalization value="true"/>
        <lefthand value="false"/>
    </processing>

    <junctions>
        <no-turnarounds value="true"/>
        <junctions.corner-detail value="5"/>
        <junctions.limit-turn-speed value="5.5"/>
        <rectangular-lane-cut value="false"/>
    </junctions>

    <pedestrian>
        <walkingareas value="false"/>
    </pedestrian>

    <report>
        <aggregate-warnings value="5"/>
    </report>

</configuration>
-->

<net version="1.9" junctionCornerDetail="5" limitTurnSpeed="5.50" xmlns:xsi="http://www.w3.org/2001/XMLSchema-instance" xsi:noNamespaceSchemaLocation="http://sumo.dlr.de/xsd/net_file.xsd">

    <location netOffset="-324219.19,-3318130.21" convBoundary="496.06,3568.70,4470.54,6728.47" origBoundary="31.177065,29.981950,31.246883,30.077808" projParameter="+proj=utm +zone=36 +ellps=WGS84 +datum=WGS84 +units=m +no_defs"/>

    <type id="highway.bridleway" priority="1" numLanes="1" speed="2.78" allow="pedestrian" oneway="1" width="2.00"/>
    <type id="highway.bus_guideway" priority="1" numLanes="1" speed="27.78" allow="bus" oneway="1"/>
    <type id="highway.cycleway" priority="1" numLanes="1" speed="8.33" allow="bicycle" oneway="1" width="1.00"/>
    <type id="highway.footway" priority="1" numLanes="1" speed="2.78" allow="pedestrian" oneway="1" width="2.00"/>
    <type id="highway.ford" priority="1" numLanes="1" speed="2.78" allow="army" oneway="1"/>
    <type id="highway.living_street" priority="2" numLanes="1" speed="2.78" disallow="tram rail_urban rail rail_electric rail_fast ship" oneway="1"/>
    <type id="highway.motorway" priority="14" numLanes="2" speed="39.44" allow="private emergency authority army vip passenger hov taxi bus coach delivery truck trailer motorcycle evehicle custom1 custom2" oneway="1"/>
    <type id="highway.motorway_link" priority="9" numLanes="1" speed="22.22" allow="private emergency authority army vip passenger hov taxi bus coach delivery truck trailer motorcycle evehicle custom1 custom2" oneway="1"/>
    <type id="highway.path" priority="1" numLanes="1" speed="2.78" allow="pedestrian bicycle" oneway="1" width="2.00"/>
    <type id="highway.pedestrian" priority="1" numLanes="1" speed="2.78" allow="pedestrian" oneway="1" width="2.00"/>
    <type id="highway.primary" priority="12" numLanes="2" speed="27.78" disallow="tram rail_urban rail rail_electric rail_fast ship" oneway="1"/>
    <type id="highway.primary_link" priority="7" numLanes="1" speed="22.22" disallow="tram rail_urban rail rail_electric rail_fast ship" oneway="1"/>
    <type id="highway.raceway" priority="15" numLanes="2" speed="83.33" allow="vip" oneway="1"/>
    <type id="highway.residential" priority="3" numLanes="1" speed="13.89" disallow="tram rail_urban rail rail_electric rail_fast ship" oneway="1"/>
    <type id="highway.secondary" priority="11" numLanes="1" speed="27.78" disallow="tram rail_urban rail rail_electric rail_fast ship" oneway="1"/>
    <type id="highway.secondary_link" priority="6" numLanes="1" speed="22.22" disallow="tram rail_urban rail rail_electric rail_fast ship" oneway="1"/>
    <type id="highway.service" priority="1" numLanes="1" speed="5.56" allow="pedestrian delivery bicycle" oneway="1"/>
    <type id="highway.stairs" priority="1" numLanes="1" speed="1.39" allow="pedestrian" oneway="1" width="2.00"/>
    <type id="highway.step" priority="1" numLanes="1" speed="1.39" allow="pedestrian" oneway="1" width="2.00"/>
    <type id="highway.steps" priority="1" numLanes="1" speed="1.39" allow="pedestrian" oneway="1" width="2.00"/>
    <type id="highway.tertiary" priority="10" numLanes="1" speed="22.22" disallow="tram rail_urban rail rail_electric rail_fast ship" oneway="1"/>
    <type id="highway.tertiary_link" priority="5" numLanes="1" speed="22.22" disallow="tram rail_urban rail rail_electric rail_fast ship" oneway="1"/>
    <type id="highway.track" priority="1" numLanes="1" speed="5.56" allow="pedestrian motorcycle moped bicycle" oneway="1"/>
    <type id="highway.trunk" priority="13" numLanes="2" speed="27.78" disallow="pedestrian bicycle tram rail_urban rail rail_electric rail_fast ship" oneway="1"/>
    <type id="highway.trunk_link" priority="8" numLanes="1" speed="22.22" disallow="pedestrian bicycle tram rail_urban rail rail_electric rail_fast ship" oneway="1"/>
    <type id="highway.unclassified" priority="4" numLanes="1" speed="13.89" disallow="tram rail_urban rail rail_electric rail_fast ship" oneway="1"/>
    <type id="highway.unsurfaced" priority="1" numLanes="1" speed="8.33" disallow="tram rail_urban rail rail_electric rail_fast ship" oneway="1"/>
    <type id="railway.highspeed" priority="21" numLanes="1" speed="69.44" allow="rail_fast" oneway="1"/>
    <type id="railway.light_rail" priority="19" numLanes="1" speed="27.78" allow="rail_urban" oneway="1"/>
    <type id="railway.preserved" priority="16" numLanes="1" speed="27.78" allow="rail" oneway="1"/>
    <type id="railway.rail" priority="20" numLanes="1" speed="44.44" allow="rail" oneway="1"/>
    <type id="railway.subway" priority="18" numLanes="1" speed="27.78" allow="rail_urban" oneway="1"/>
    <type id="railway.tram" priority="17" numLanes="1" speed="13.89" allow="tram" oneway="1"/>

    <edge id=":1140160645_0" function="internal">
        <lane id=":1140160645_0_0" index="0" disallow="tram rail_urban rail rail_electric rail_fast ship" speed="27.78" length="0.30" shape="3642.94,5133.67 3642.64,5133.63"/>
        <lane id=":1140160645_0_1" index="1" disallow="tram rail_urban rail rail_electric rail_fast ship" speed="27.78" length="0.30" shape="3643.42,5130.51 3643.12,5130.47"/>
    </edge>
    <edge id=":1639953210_0" function="internal">
        <lane id=":1639953210_0_0" index="0" disallow="pedestrian tram rail_urban rail rail_electric rail_fast ship" speed="27.78" length="21.89" shape="2138.88,5231.79 2117.29,5229.22"/>
        <lane id=":1639953210_0_1" index="1" disallow="pedestrian tram rail_urban rail rail_electric rail_fast ship" speed="27.78" length="21.89" shape="2139.46,5228.62 2117.57,5226.03"/>
    </edge>
    <edge id=":1639953210_2" function="internal">
        <lane id=":1639953210_2_0" index="0" disallow="pedestrian tram rail_urban rail rail_electric rail_fast ship" speed="27.78" length="22.37" shape="2139.33,5224.91 2133.28,5227.03 2128.48,5228.57 2123.60,5229.36 2117.29,5229.22"/>
        <lane id=":1639953210_2_1" index="1" disallow="pedestrian tram rail_urban rail rail_electric rail_fast ship" speed="27.78" length="22.37" shape="2139.33,5224.91 2133.32,5226.53 2128.62,5226.98 2123.84,5226.67 2117.57,5226.03"/>
        <lane id=":1639953210_2_2" index="2" disallow="pedestrian tram rail_urban rail rail_electric rail_fast ship" speed="27.78" length="22.37" shape="2138.65,5221.77 2132.70,5224.38 2128.14,5227.00 2123.49,5228.87 2117.29,5229.22"/>
        <lane id=":1639953210_2_3" index="3" disallow="pedestrian tram rail_urban rail rail_electric rail_fast ship" speed="27.78" length="22.37" shape="2138.65,5221.77 2132.75,5223.88 2128.28,5225.41 2123.73,5226.18 2117.57,5226.03"/>
    </edge>
    <edge id=":1639953225_0" function="internal">
        <lane id=":1639953225_0_0" index="0" disallow="pedestrian tram rail_urban rail rail_electric rail_fast ship" speed="27.78" length="0.27" shape="2311.45,5035.33 2311.68,5035.40"/>
        <lane id=":1639953225_0_1" index="1" disallow="pedestrian tram rail_urban rail rail_electric rail_fast ship" speed="27.78" length="0.27" shape="2310.49,5038.38 2310.78,5038.47"/>
    </edge>
    <edge id=":1639953233_0" function="internal">
        <lane id=":1639953233_0_0" index="0" disallow="pedestrian tram rail_urban rail rail_electric rail_fast ship" speed="25.00" length="16.11" shape="2365.06,4843.65 2366.65,4840.52 2368.62,4837.64 2370.58,4834.17 2372.11,4829.28"/>
    </edge>
    <edge id=":1639953233_1" function="internal">
        <lane id=":1639953233_1_0" index="0" disallow="tram rail_urban rail rail_electric rail_fast ship" speed="27.78" length="16.37" shape="2368.37,4845.16 2372.11,4829.28"/>
        <lane id=":1639953233_1_1" index="1" disallow="tram rail_urban rail rail_electric rail_fast ship" speed="27.78" length="16.37" shape="2371.48,4845.90 2375.25,4829.92"/>
    </edge>
    <edge id=":1639953244_0" function="internal">
        <lane id=":1639953244_0_0" index="0" disallow="pedestrian tram rail_urban rail rail_electric rail_fast ship" speed="22.22" length="0.29" shape="2350.52,4888.47 2350.60,4888.19"/>
    </edge>
    <edge id=":1639953257_0" function="internal">
        <lane id=":1639953257_0_0" index="0" disallow="pedestrian tram rail_urban rail rail_electric rail_fast ship" speed="25.00" length="14.38" shape="2253.95,5016.93 2258.45,5017.52 2261.87,5017.52 2264.91,5017.20 2268.26,5016.82"/>
    </edge>
    <edge id=":1639953257_1" function="internal">
        <lane id=":1639953257_1_0" index="0" disallow="pedestrian tram rail_urban rail rail_electric rail_fast ship" speed="27.78" length="14.36" shape="2253.95,5016.93 2258.14,5017.89 2260.92,5018.88 2263.67,5020.04 2267.74,5021.49"/>
        <lane id=":1639953257_1_1" index="1" disallow="pedestrian tram rail_urban rail rail_electric rail_fast ship" speed="27.78" length="14.36" shape="2253.37,5020.07 2257.45,5021.01 2260.15,5021.99 2262.81,5023.12 2266.77,5024.54"/>
    </edge>
    <edge id=":1664641216_0" function="internal">
        <lane id=":1664641216_0_0" index="0" disallow="pedestrian tram rail_urban rail rail_electric rail_fast ship" speed="27.78" length="0.25" shape="3771.93,4208.42 3771.94,4208.29"/>
        <lane id=":1664641216_0_1" index="1" disallow="pedestrian tram rail_urban rail rail_electric rail_fast ship" speed="27.78" length="0.25" shape="3775.10,4208.87 3775.13,4208.50"/>
    </edge>
    <edge id=":1852024825_0" function="internal">
        <lane id=":1852024825_0_0" index="0" disallow="tram rail_urban rail rail_electric rail_fast ship" speed="27.78" length="2.46" shape="2618.95,5138.96 2618.25,5138.75 2617.77,5138.62 2617.28,5138.51 2616.56,5138.38"/>
        <lane id=":1852024825_0_1" index="1" disallow="tram rail_urban rail rail_electric rail_fast ship" speed="27.78" length="4.14" shape="2618.95,5138.96 2617.14,5135.23"/>
    </edge>
    <edge id=":1852024825_2" function="internal">
        <lane id=":1852024825_2_0" index="0" disallow="tram rail_urban rail rail_electric rail_fast ship" speed="27.78" length="2.66" shape="2618.95,5138.96 2616.59,5138.24"/>
        <lane id=":1852024825_2_1" index="1" disallow="tram rail_urban rail rail_electric rail_fast ship" speed="27.78" length="2.66" shape="2619.89,5135.90 2617.17,5135.07"/>
    </edge>
    <edge id=":2029883707_0" function="internal">
        <lane id=":2029883707_0_0" index="0" allow="pedestrian delivery bicycle" speed="9.72" length="5.57" shape="3846.70,3933.73 3846.90,3935.11 3846.16,3936.08 3845.24,3937.10 3844.88,3938.65"/>
    </edge>
    <edge id=":2029883707_1" function="internal">
        <lane id=":2029883707_1_0" index="0" disallow="tram rail_urban rail rail_electric rail_fast ship" speed="3.65" length="4.67" shape="3846.70,3933.73 3846.55,3935.16 3846.03,3935.89 3845.13,3935.91 3843.87,3935.22"/>
    </edge>
    <edge id=":2031386838_0" function="internal">
        <lane id=":2031386838_0_0" index="0" disallow="tram rail_urban rail rail_electric rail_fast ship" speed="27.78" length="0.47" shape="2111.10,5306.15 2111.06,5306.28 2111.03,5306.37 2110.99,5306.46 2110.93,5306.58"/>
    </edge>
    <edge id=":2031386838_1" function="internal">
        <lane id=":2031386838_1_0" index="0" disallow="tram rail_urban rail rail_electric rail_fast ship" speed="3.65" length="2.34" shape="2111.10,5306.15 2109.96,5307.03 2109.07,5307.15"/>
    </edge>
    <edge id=":2031386838_4" function="internal">
        <lane id=":2031386838_4_0" index="0" disallow="tram rail_urban rail rail_electric rail_fast ship" speed="3.65" length="2.34" shape="2109.07,5307.15 2108.45,5306.51 2108.08,5305.11"/>
    </edge>
    <edge id=":2031386838_2" function="internal">
        <lane id=":2031386838_2_0" index="0" disallow="tram rail_urban rail rail_electric rail_fast ship" speed="27.78" length="0.16" shape="2108.02,5305.26 2108.04,5305.22 2108.05,5305.19 2108.06,5305.16 2108.08,5305.11"/>
    </edge>
    <edge id=":2031386838_3" function="internal">
        <lane id=":2031386838_3_0" index="0" disallow="tram rail_urban rail rail_electric rail_fast ship" speed="3.65" length="2.34" shape="2108.02,5305.26 2109.24,5304.50 2110.14,5304.47"/>
    </edge>
    <edge id=":2031386838_5" function="internal">
        <lane id=":2031386838_5_0" index="0" disallow="tram rail_urban rail rail_electric rail_fast ship" speed="3.65" length="2.34" shape="2110.14,5304.47 2110.70,5305.16 2110.93,5306.58"/>
    </edge>
    <edge id=":2167614338_0" function="internal">
        <lane id=":2167614338_0_0" index="0" disallow="tram rail_urban rail rail_electric rail_fast ship" speed="3.65" length="4.67" shape="1550.04,6728.80 1549.01,6729.81 1548.14,6730.04 1547.44,6729.48 1546.90,6728.14"/>
    </edge>
    <edge id=":2414602499_0" function="internal">
        <lane id=":2414602499_0_0" index="0" disallow="tram rail_urban rail rail_electric rail_fast ship" speed="6.52" length="9.06" shape="2530.16,5117.48 2527.70,5117.19 2525.73,5117.75 2524.26,5119.17 2523.27,5121.46"/>
    </edge>
    <edge id=":2414602499_1" function="internal">
        <lane id=":2414602499_1_0" index="0" disallow="tram rail_urban rail rail_electric rail_fast ship" speed="27.78" length="14.41" shape="2530.16,5117.48 2516.24,5113.76"/>
        <lane id=":2414602499_1_1" index="1" disallow="tram rail_urban rail rail_electric rail_fast ship" speed="27.78" length="14.41" shape="2530.99,5114.39 2517.06,5110.67"/>
    </edge>
    <edge id=":2414602499_3" function="internal">
        <lane id=":2414602499_3_0" index="0" disallow="tram rail_urban rail rail_electric rail_fast ship" speed="6.49" length="9.03" shape="2520.18,5120.61 2520.49,5118.16 2519.94,5116.19 2518.52,5114.73 2516.24,5113.76"/>
    </edge>
    <edge id=":2414602499_4" function="internal">
        <lane id=":2414602499_4_0" index="0" disallow="tram rail_urban rail rail_electric rail_fast ship" speed="3.65" length="4.67" shape="2520.18,5120.61 2521.27,5119.67 2522.15,5119.49 2522.82,5120.09 2523.27,5121.46"/>
    </edge>
    <edge id=":2414602502_0" function="internal">
        <lane id=":2414602502_0_0" index="0" disallow="tram rail_urban rail rail_electric rail_fast ship" speed="6.57" length="9.09" shape="2560.28,5125.51 2557.82,5125.24 2555.86,5125.83 2554.37,5127.27 2553.38,5129.57"/>
    </edge>
    <edge id=":2414602502_1" function="internal">
        <lane id=":2414602502_1_0" index="0" disallow="tram rail_urban rail rail_electric rail_fast ship" speed="27.78" length="14.37" shape="2560.28,5125.51 2546.37,5121.85"/>
        <lane id=":2414602502_1_1" index="1" disallow="tram rail_urban rail rail_electric rail_fast ship" speed="27.78" length="14.37" shape="2561.08,5122.41 2547.20,5118.76"/>
    </edge>
    <edge id=":2414602502_3" function="internal">
        <lane id=":2414602502_3_0" index="0" disallow="tram rail_urban rail rail_electric rail_fast ship" speed="6.49" length="9.03" shape="2550.30,5128.71 2550.61,5126.26 2550.06,5124.29 2548.65,5122.82 2546.37,5121.85"/>
    </edge>
    <edge id=":2414602502_4" function="internal">
        <lane id=":2414602502_4_0" index="0" disallow="tram rail_urban rail rail_electric rail_fast ship" speed="3.65" length="4.67" shape="2550.30,5128.71 2551.39,5127.77 2552.26,5127.60 2552.93,5128.20 2553.38,5129.57"/>
    </edge>
    <edge id=":2414602508_0" function="internal">
        <lane id=":2414602508_0_0" index="0" disallow="tram rail_urban rail rail_electric rail_fast ship" speed="6.07" length="1.12" shape="2462.21,5194.61 2461.25,5194.04"/>
    </edge>
    <edge id=":2414602508_1" function="internal">
        <lane id=":2414602508_1_0" index="0" disallow="tram rail_urban rail rail_electric rail_fast ship" speed="3.65" length="1.17" shape="2462.21,5194.61 2461.44,5193.74"/>
    </edge>
    <edge id=":2414602508_4" function="internal">
        <lane id=":2414602508_4_0" index="0" disallow="tram rail_urban rail rail_electric rail_fast ship" speed="6.07" length="6.65" shape="2461.25,5194.04 2460.99,5193.88 2460.36,5192.48 2460.32,5190.43 2460.86,5187.72"/>
    </edge>
    <edge id=":2414602508_5" function="internal">
        <lane id=":2414602508_5_0" index="0" disallow="tram rail_urban rail rail_electric rail_fast ship" speed="3.65" length="3.50" shape="2461.44,5193.74 2461.26,5193.53 2461.08,5192.65 2461.67,5191.99 2463.04,5191.52"/>
    </edge>
    <edge id=":2414602508_2" function="internal">
        <lane id=":2414602508_2_0" index="0" disallow="tram rail_urban rail rail_electric rail_fast ship" speed="13.89" length="9.39" shape="2458.35,5196.77 2460.86,5187.72"/>
    </edge>
    <edge id=":2414602508_3" function="internal">
        <lane id=":2414602508_3_0" index="0" disallow="tram rail_urban rail rail_electric rail_fast ship" speed="6.11" length="7.76" shape="2458.35,5196.77 2459.28,5194.17 2460.37,5192.43 2461.62,5191.55 2463.04,5191.52"/>
    </edge>
    <edge id=":2414602510_0" function="internal">
        <lane id=":2414602510_0_0" index="0" disallow="tram rail_urban rail rail_electric rail_fast ship" speed="6.51" length="9.04" shape="2505.88,5206.38 2503.42,5206.07 2501.46,5206.62 2499.98,5208.04 2498.99,5210.31"/>
    </edge>
    <edge id=":2414602510_1" function="internal">
        <lane id=":2414602510_1_0" index="0" disallow="tram rail_urban rail rail_electric rail_fast ship" speed="13.89" length="14.41" shape="2505.88,5206.38 2491.97,5202.60"/>
    </edge>
    <edge id=":2414602510_2" function="internal">
        <lane id=":2414602510_2_0" index="0" disallow="tram rail_urban rail rail_electric rail_fast ship" speed="8.01" length="14.19" shape="2505.88,5206.38 2502.31,5204.83 2500.10,5202.51 2499.23,5199.42 2499.71,5195.57"/>
    </edge>
    <edge id=":2414602510_3" function="internal">
        <lane id=":2414602510_3_0" index="0" disallow="tram rail_urban rail rail_electric rail_fast ship" speed="3.65" length="4.67" shape="2505.88,5206.38 2504.94,5205.29 2504.76,5204.41 2505.36,5203.75 2506.73,5203.30"/>
    </edge>
    <edge id=":2414602510_4" function="internal">
        <lane id=":2414602510_4_0" index="0" disallow="tram rail_urban rail rail_electric rail_fast ship" speed="6.51" length="9.04" shape="2502.80,5196.41 2502.49,5198.87 2503.04,5200.83 2504.46,5202.31 2506.73,5203.30"/>
    </edge>
    <edge id=":2414602510_5" function="internal">
        <lane id=":2414602510_5_0" index="0" disallow="tram rail_urban rail rail_electric rail_fast ship" speed="13.89" length="14.41" shape="2502.80,5196.41 2498.99,5210.31"/>
    </edge>
    <edge id=":2414602510_6" function="internal">
        <lane id=":2414602510_6_0" index="0" disallow="tram rail_urban rail rail_electric rail_fast ship" speed="8.02" length="5.93" shape="2502.80,5196.41 2501.25,5199.98 2499.78,5201.39"/>
    </edge>
    <edge id=":2414602510_7" function="internal">
        <lane id=":2414602510_7_0" index="0" disallow="tram rail_urban rail rail_electric rail_fast ship" speed="3.65" length="2.34" shape="2502.80,5196.41 2501.71,5197.36 2500.83,5197.53"/>
    </edge>
    <edge id=":2414602510_16" function="internal">
        <lane id=":2414602510_16_0" index="0" disallow="tram rail_urban rail rail_electric rail_fast ship" speed="8.02" length="8.28" shape="2499.78,5201.39 2498.94,5202.20 2495.84,5203.07 2491.97,5202.60"/>
    </edge>
    <edge id=":2414602510_17" function="internal">
        <lane id=":2414602510_17_0" index="0" disallow="tram rail_urban rail rail_electric rail_fast ship" speed="3.65" length="2.34" shape="2500.83,5197.53 2500.17,5196.94 2499.71,5195.57"/>
    </edge>
    <edge id=":2414602510_8" function="internal">
        <lane id=":2414602510_8_0" index="0" disallow="tram rail_urban rail rail_electric rail_fast ship" speed="6.53" length="9.06" shape="2492.80,5199.51 2495.27,5199.81 2497.25,5199.26 2498.73,5197.84 2499.71,5195.57"/>
    </edge>
    <edge id=":2414602510_9" function="internal">
        <lane id=":2414602510_9_0" index="0" disallow="tram rail_urban rail rail_electric rail_fast ship" speed="13.89" length="14.43" shape="2492.80,5199.51 2506.73,5203.30"/>
    </edge>
    <edge id=":2414602510_10" function="internal">
        <lane id=":2414602510_10_0" index="0" disallow="tram rail_urban rail rail_electric rail_fast ship" speed="7.99" length="14.21" shape="2492.80,5199.51 2496.39,5201.05 2498.61,5203.36 2499.48,5206.45 2498.99,5210.31"/>
    </edge>
    <edge id=":2414602510_11" function="internal">
        <lane id=":2414602510_11_0" index="0" disallow="tram rail_urban rail rail_electric rail_fast ship" speed="3.65" length="4.67" shape="2492.80,5199.51 2493.76,5200.60 2493.93,5201.47 2493.34,5202.14 2491.97,5202.60"/>
    </edge>
    <edge id=":2414602510_12" function="internal">
        <lane id=":2414602510_12_0" index="0" disallow="tram rail_urban rail rail_electric rail_fast ship" speed="6.50" length="9.03" shape="2495.91,5209.47 2496.22,5207.01 2495.67,5205.05 2494.25,5203.58 2491.97,5202.60"/>
    </edge>
    <edge id=":2414602510_13" function="internal">
        <lane id=":2414602510_13_0" index="0" disallow="tram rail_urban rail rail_electric rail_fast ship" speed="13.89" length="14.41" shape="2495.91,5209.47 2499.71,5195.57"/>
    </edge>
    <edge id=":2414602510_14" function="internal">
        <lane id=":2414602510_14_0" index="0" disallow="tram rail_urban rail rail_electric rail_fast ship" speed="8.00" length="5.93" shape="2495.91,5209.47 2497.46,5205.89 2498.93,5204.48"/>
    </edge>
    <edge id=":2414602510_15" function="internal">
        <lane id=":2414602510_15_0" index="0" disallow="tram rail_urban rail rail_electric rail_fast ship" speed="3.65" length="2.34" shape="2495.91,5209.47 2497.00,5208.52 2497.87,5208.35"/>
    </edge>
    <edge id=":2414602510_18" function="internal">
        <lane id=":2414602510_18_0" index="0" disallow="tram rail_urban rail rail_electric rail_fast ship" speed="8.00" length="8.27" shape="2498.93,5204.48 2499.78,5203.67 2502.87,5202.81 2506.73,5203.30"/>
    </edge>
    <edge id=":2414602510_19" function="internal">
        <lane id=":2414602510_19_0" index="0" disallow="tram rail_urban rail rail_electric rail_fast ship" speed="3.65" length="2.34" shape="2497.87,5208.35 2498.54,5208.94 2498.99,5210.31"/>
    </edge>
    <edge id=":2414602512_0" function="internal">
        <lane id=":2414602512_0_0" index="0" disallow="tram rail_urban rail rail_electric rail_fast ship" speed="6.52" length="9.05" shape="2535.71,5214.58 2533.25,5214.27 2531.28,5214.82 2529.80,5216.23 2528.81,5218.50"/>
    </edge>
    <edge id=":2414602512_1" function="internal">
        <lane id=":2414602512_1_0" index="0" disallow="tram rail_urban rail rail_electric rail_fast ship" speed="13.89" length="14.41" shape="2535.71,5214.58 2521.82,5210.76"/>
    </edge>
    <edge id=":2414602512_2" function="internal">
        <lane id=":2414602512_2_0" index="0" disallow="tram rail_urban rail rail_electric rail_fast ship" speed="8.00" length="5.93" shape="2535.71,5214.58 2532.14,5213.03 2530.74,5211.56"/>
    </edge>
    <edge id=":2414602512_3" function="internal">
        <lane id=":2414602512_3_0" index="0" disallow="tram rail_urban rail rail_electric rail_fast ship" speed="3.65" length="2.34" shape="2535.71,5214.58 2534.77,5213.49 2534.59,5212.62"/>
    </edge>
    <edge id=":2414602512_16" function="internal">
        <lane id=":2414602512_16_0" index="0" disallow="tram rail_urban rail rail_electric rail_fast ship" speed="8.00" length="8.27" shape="2530.74,5211.56 2529.93,5210.71 2529.07,5207.62 2529.57,5203.76"/>
    </edge>
    <edge id=":2414602512_17" function="internal">
        <lane id=":2414602512_17_0" index="0" disallow="tram rail_urban rail rail_electric rail_fast ship" speed="3.65" length="2.34" shape="2534.59,5212.62 2535.19,5211.95 2536.56,5211.50"/>
    </edge>
    <edge id=":2414602512_4" function="internal">
        <lane id=":2414602512_4_0" index="0" disallow="tram rail_urban rail rail_electric rail_fast ship" speed="6.51" length="9.03" shape="2532.65,5204.61 2532.34,5207.07 2532.88,5209.03 2534.29,5210.51 2536.56,5211.50"/>
    </edge>
    <edge id=":2414602512_5" function="internal">
        <lane id=":2414602512_5_0" index="0" disallow="tram rail_urban rail rail_electric rail_fast ship" speed="13.89" length="14.41" shape="2532.65,5204.61 2528.81,5218.50"/>
    </edge>
    <edge id=":2414602512_6" function="internal">
        <lane id=":2414602512_6_0" index="0" disallow="tram rail_urban rail rail_electric rail_fast ship" speed="8.01" length="14.20" shape="2532.65,5204.61 2531.09,5208.18 2528.77,5210.39 2525.68,5211.25 2521.82,5210.76"/>
    </edge>
    <edge id=":2414602512_7" function="internal">
        <lane id=":2414602512_7_0" index="0" disallow="tram rail_urban rail rail_electric rail_fast ship" speed="3.65" length="4.67" shape="2532.65,5204.61 2531.56,5205.56 2530.68,5205.73 2530.02,5205.13 2529.57,5203.76"/>
    </edge>
    <edge id=":2414602512_8" function="internal">
        <lane id=":2414602512_8_0" index="0" disallow="tram rail_urban rail rail_electric rail_fast ship" speed="6.51" length="9.05" shape="2522.66,5207.68 2525.12,5207.99 2527.09,5207.44 2528.57,5206.03 2529.57,5203.76"/>
    </edge>
    <edge id=":2414602512_9" function="internal">
        <lane id=":2414602512_9_0" index="0" disallow="tram rail_urban rail rail_electric rail_fast ship" speed="13.89" length="14.41" shape="2522.66,5207.68 2536.56,5211.50"/>
    </edge>
    <edge id=":2414602512_10" function="internal">
        <lane id=":2414602512_10_0" index="0" disallow="tram rail_urban rail rail_electric rail_fast ship" speed="8.00" length="5.93" shape="2522.66,5207.68 2526.23,5209.23 2527.64,5210.71"/>
    </edge>
    <edge id=":2414602512_11" function="internal">
        <lane id=":2414602512_11_0" index="0" disallow="tram rail_urban rail rail_electric rail_fast ship" speed="3.65" length="2.34" shape="2522.66,5207.68 2523.61,5208.77 2523.78,5209.64"/>
    </edge>
    <edge id=":2414602512_18" function="internal">
        <lane id=":2414602512_18_0" index="0" disallow="tram rail_urban rail rail_electric rail_fast ship" speed="8.00" length="8.27" shape="2527.64,5210.71 2528.45,5211.55 2529.30,5214.64 2528.81,5218.50"/>
    </edge>
    <edge id=":2414602512_19" function="internal">
        <lane id=":2414602512_19_0" index="0" disallow="tram rail_urban rail rail_electric rail_fast ship" speed="3.65" length="2.34" shape="2523.78,5209.64 2523.19,5210.31 2521.82,5210.76"/>
    </edge>
    <edge id=":2414602512_12" function="internal">
        <lane id=":2414602512_12_0" index="0" disallow="tram rail_urban rail rail_electric rail_fast ship" speed="6.50" length="9.03" shape="2525.72,5217.65 2526.04,5215.19 2525.49,5213.23 2524.09,5211.75 2521.82,5210.76"/>
    </edge>
    <edge id=":2414602512_13" function="internal">
        <lane id=":2414602512_13_0" index="0" disallow="tram rail_urban rail rail_electric rail_fast ship" speed="13.89" length="14.41" shape="2525.72,5217.65 2529.57,5203.76"/>
    </edge>
    <edge id=":2414602512_14" function="internal">
        <lane id=":2414602512_14_0" index="0" disallow="tram rail_urban rail rail_electric rail_fast ship" speed="8.01" length="14.20" shape="2525.72,5217.65 2527.28,5214.08 2529.61,5211.87 2532.70,5211.01 2536.56,5211.50"/>
    </edge>
    <edge id=":2414602512_15" function="internal">
        <lane id=":2414602512_15_0" index="0" disallow="tram rail_urban rail rail_electric rail_fast ship" speed="3.65" length="4.67" shape="2525.72,5217.65 2526.81,5216.70 2527.69,5216.53 2528.36,5217.13 2528.81,5218.50"/>
    </edge>
    <edge id=":2414602514_0" function="internal">
        <lane id=":2414602514_0_0" index="0" disallow="tram rail_urban rail rail_electric rail_fast ship" speed="6.51" length="9.02" shape="2566.26,5222.96 2563.81,5222.66 2561.85,5223.21 2560.38,5224.63 2559.40,5226.90"/>
    </edge>
    <edge id=":2414602514_1" function="internal">
        <lane id=":2414602514_1_0" index="0" disallow="tram rail_urban rail rail_electric rail_fast ship" speed="13.89" length="14.38" shape="2566.26,5222.96 2552.39,5219.18"/>
    </edge>
    <edge id=":2414602514_2" function="internal">
        <lane id=":2414602514_2_0" index="0" disallow="tram rail_urban rail rail_electric rail_fast ship" speed="3.65" length="2.34" shape="2566.26,5222.96 2565.31,5221.87 2565.14,5220.99"/>
    </edge>
    <edge id=":2414602514_9" function="internal">
        <lane id=":2414602514_9_0" index="0" disallow="tram rail_urban rail rail_electric rail_fast ship" speed="3.65" length="2.34" shape="2565.14,5220.99 2565.73,5220.33 2567.10,5219.87"/>
    </edge>
    <edge id=":2414602514_3" function="internal">
        <lane id=":2414602514_3_0" index="0" disallow="tram rail_urban rail rail_electric rail_fast ship" speed="13.89" length="14.36" shape="2553.24,5216.09 2567.10,5219.87"/>
    </edge>
    <edge id=":2414602514_4" function="internal">