<?xml version="1.0" encoding="UTF-8"?>

<!-- generated on 2022-07-03 23:39:27 by Eclipse SUMO duarouter Version 1.10.0
<configuration xmlns:xsi="http://www.w3.org/2001/XMLSchema-instance" xsi:noNamespaceSchemaLocation="http://sumo.dlr.de/xsd/duarouterConfiguration.xsd">

    <input>
        <net-file value="./../network/cu.net.xml"/>
        <route-files value="./3PercentClient/trips.trips.xml"/>
    </input>

    <output>
        <output-file value="./3PercentClient/routes.rou.xml"/>
        <alternatives-output value="./3PercentClient/routes.rou.alt.xml"/>
    </output>

    <time>
        <begin value="0"/>
        <end value="3600"/>
    </time>

    <report>
        <no-warnings value="true"/>
        <ignore-errors value="true"/>
        <no-step-log value="true"/>
    </report>

</configuration>
-->

<routes xmlns:xsi="http://www.w3.org/2001/XMLSchema-instance" xsi:noNamespaceSchemaLocation="http://sumo.dlr.de/xsd/routes_file.xsd">
    <vehicle id="Trip-1" depart="0.00">
        <route edges="38285536#7 38285536#8 38285536#9 38285536#10 38285536#11 38285536#12 38285536#13 38285536#14 38285536#15 38285536#16 38285536#17 38285536#18 38285536#19 54733120#6 54733120#7 54733120#8 54733120#9 54733120#10 54733120#11 54733120#12 54733120#13 54733120#14 54733120#15 54733120#16 54733120#17 54733120#18 54733120#19 54733120#20 54733120#21 54733120#22 54733120#23"/>
    </vehicle>
    <vehicle id="Trip-2" depart="0.00">
        <route edges="-46970326#4 -46970326#3 -46970326#2 -46970326#1 -46970326#0 38284619#2 38284619#3 38284619#4 38284619#5 38284619#6 38284619#7 233125859#0 233125859#1 233125859#2 233125859#3 233125859#4 233125859#5 233125859#6 32502011#3 -724687136#1 -724687136#0 54733120#15 54733120#16 54733120#17 54733120#18 54733120#19 54733120#20 54733120#21 54733120#22"/>
    </vehicle>
    <vehicle id="Trip-3" depart="0.00">
        <route edges="153834046#8 34888245 689731684#3 766178504 689731686#1 24893934#1 24893934#2 24893934#3 28797819#0 28797819#1 28797819#2 38285536#5 38285536#6 38285536#7 38285536#8 38285536#9 38285536#10 38285536#11 38285536#12 510256970#0 510256970#2 54732622 24764150#6 24764150#7 510256968"/>
    </vehicle>
    <vehicle id="Trip-4" depart="0.00">
        <route edges="-38284622#0 38284622#0 38284622#1 38284622#2 38284622#3 38284622#4 38284622#5 38284622#6 38284622#7 725768768#0 725768768#1 725768768#2 725768768#3 725768768#4 725768768#5 725768768#6 725768768#7 725768768#8 725768768#9 725768768#10 725768768#11 725768768#12 725768768#13 725768768#14 725768768#15 725768768#16 725768768#17 725768768#18 725768768#19 725768768#20 725768768#21 725768768#22 725768768#23 725768768#24 725768768#25 725768768#26 690721682#0 690721682#1 690721682#2 690692705#3 -725809134#10 -725809134#9 -725809134#8 -725809134#7"/>
    </vehicle>
    <vehicle id="Trip-5" depart="0.00">
        <route edges="50219737#0 50219737#2 50219737#3 689731672#0 689731672#1 686693015#0 686693015#1 686693015#2 686693015#3 686693015#4 686693015#5 903839542#0 903839542#1 903839542#2 903839542#3 903839542#4 903839542#5 903839542#6 54733120#0 54733120#1 54733120#3 54733120#5 54733120#6 54733120#7 54733120#8 54733120#9 54733120#10 54733120#11 54733120#12 54733120#13 54733120#14 724687136#0"/>
    </vehicle>
    <vehicle id="Trip-6" depart="0.00">
        <route edges="689928611#1 689928611#2 689928611#3 689928611#4 689928611#5 689928611#6 689731672#4 24764150#0 24764150#1 24764150#2 24764150#3 685606030 510256970#6"/>
    </vehicle>
    <vehicle id="Trip-7" depart="0.00">
        <route edges="153834046#5 153834046#6 153834046#7 34888301 689731684#2 689731684#3 766178504 689731686#1 24893934#1 24893934#2 24893934#3 28797819#0 28797819#1 28797819#2 38285536#5 38285536#6 38285536#7 38285536#8 38285536#9 38285536#10 38285536#11 38285536#12 510256970#0"/>
    </vehicle>
    <vehicle id="Trip-8" depart="0.00">
        <route edges="28856894#3 28856894#4 28856894#5 -28856981#3 -28856981#2 -28856981#1 -28856981#0 903839542#0 903839542#1 903839542#2 903839542#3 903839542#4 903839542#5 903839542#6 54733120#0 54733120#1 54733120#3 54733120#5 54733120#6 54733120#7 54733120#8 54733120#9 54733120#10 54733120#11 54733120#12 54733120#13 54733120#14 54733120#15 54733120#16 54733120#17 54733120#18 54733120#19 54733120#20 54733120#21 54733120#22 54733120#23 54733120#24 174532759#0 174532759#1 174532759#2 174532759#3 174532759#4 174532759#5 174532759#6 38284630#5 38284630#6 38284630#7 38284630#8 29420059#0 29420059#1 29420059#2 754177479#0 754177479#1 -48981675#3 -48981675#2"/>
    </vehicle>
    <vehicle id="Trip-9" depart="0.00">
        <route edges="510256970#2 510256970#3 510256970#4 510256970#5 510256970#6 510256970#7 689731686#0 689731686#1 24893934#1 24893934#2 24893934#3 28797819#0 28797819#1 28797819#2 38285536#5"/>
    </vehicle>
    <vehicle id="Trip-10" depart="0.00">
        <route edges="38427387#0 38427387#1 24764157#1 24764157#2 24764150#0 24764150#1 24764150#2 24764150#3 685606030 510256970#6 510256970#7"/>
    </vehicle>
    <vehicle id="Trip-11" depart="0.00">
        <route edges="54722592#0 -690188432 54718367#2 -45415949 389856553#2 389856553#3 389856553#4 389856553#5 523721000 38421931#1 -28797885#1 -28797885#0 28797819#1 28797819#2 38285536#5 38285536#6 38285536#7 38285536#8 38285536#9 38285536#10 38285536#11 38285536#12 38285536#13 38285536#14 38285536#15 38285536#16 38285536#17 38285536#18 38285536#19 54733120#6 54733120#7 54733120#8 54733120#9 54733120#10 54733120#11 54733120#12 54733120#13 54733120#14 54733120#15 54733120#16 54733120#17 54733120#18 54733120#19 54733120#20 54733120#21 54733120#22 54733120#23 54733120#24 54733120#25 25049020 151170462 38284625 38284622#4 38284622#5 38284622#6 38284622#7 725768768#0 725768768#1 725768768#2 725768768#3 725768768#4 725768768#5 725768768#6 725768768#7 725768768#8 725768768#9 -46971823#8 -46971823#7 -46971823#6 -46971823#5 -46971823#4 -46971823#3 -46971823#2 -46971823#1 -46971823#0"/>
    </vehicle>
    <vehicle id="Trip-12" depart="0.00">
        <route edges="38427387#0 38427387#1 24764157#1 24764157#2 24764150#0 24764150#1 24764150#2 24764150#3 24764150#4 24764150#5 24764150#6 24764150#7 24764150#8 38285536#15 38285536#16 38285536#17 38285536#18 38285536#19 54733120#6 54733120#7 54733120#8 54733120#9 54733120#10 54733120#11 54733120#12 54733120#13 54733120#14 54733120#15 54733120#16 54733120#17 54733120#18 54733120#19 54733120#20 54733120#21 54733120#22 54733120#23 54733120#24 54733120#25 25049020 151170462 38284625 38284622#4 38284622#5 38284622#6 38284622#7 725768768#0 725768768#1 725768768#2 725768768#3 725768768#4 725768768#5 725768768#6 725768768#7 725768768#8 -688592563#1 -688592563#0"/>
    </vehicle>
    <vehicle id="Trip-13" depart="0.00">
        <route edges="-28856981#5 -28856981#4 -28856981#3 -28856981#2 -28856981#1 -28856981#0 903839542#0 903839542#1 903839542#2 903839542#3 903839542#4 903839542#5 903839542#6 54733120#0 54733120#1 54733120#3 54733120#5 54733120#6 54733120#7 54733120#8 54733120#9 54733120#10 54733120#11 54733120#12 54733120#13 54733120#14 54733120#15 54733120#16 54733120#17 54733120#18 54733120#19 54733120#20 54733120#21 54733120#22 54733120#23 54733120#24 54733120#25 25049020 151170462 38284625 38284622#4 38284622#5 38284622#6 38284622#7 725768768#0 725768768#1 725768768#2 725768768#3 725768768#4 725768768#5 725768768#6 725768768#7 725768768#8 725768768#9 725768768#10 725768768#11 725768768#12 725768768#13 725768768#14 725768768#15 725768768#16 725768768#17 725768768#18 725768768#19 725768768#20 725768768#21 -688596687 688596687"/>
    </vehicle>
    <vehicle id="Trip-14" depart="0.00">
        <route edges="28856952#1 28856632#6 28856894#0 28856894#1 28856894#2 28856894#3 28856894#4 28856894#5 -28856981#3 -28856981#2 -28856981#1"/>
    </vehicle>
    <vehicle id="Trip-15" depart="0.00">
        <route edges="34888245 689731684#3 766178504 689731686#1 24893934#1 24893934#2 24893934#3 28797819#0 28797819#1 28797819#2 38285536#5 38285536#6 38285536#7 38285536#8 38285536#9 38285536#10 38285536#11 38285536#12 38285536#13 38285536#14 38285536#15 38285536#16 38285536#17 38285536#18 38285536#19 54733120#6 54733120#7 54733120#8 54733120#9 54733120#10 54733120#11 54733120#12 54733120#13 54733120#14 54733120#15 54733120#16 54733120#17 54733120#18 54733120#19 54733120#20 54733120#21 54733120#22 54733120#23 54733120#24 174532759#0 174532759#1 174532759#2 174532759#3 174532759#4 174532759#5 174532759#6 38284630#5 38284630#6 38284630#7 38284630#8 915437569 682417505#4"/>
    </vehicle>
    <vehicle id="Trip-16" depart="0.00">
        <route edges="38284630#7 -46970326#4 -46970326#3 -46970326#2 -46970326#1 -46970326#0 38284619#2 38284619#3 38284619#4 38284619#5 38284619#6 38284619#7 233125859#0 233125859#1 233125859#2 233125859#3 233125859#4 719320360#5 719320360#6 719320360#7 54733120#24 54733120#25 25049020 151170462 38284625 38284622#4 38284622#5 38284622#6 38284622#7 725768768#0 725768768#1 725768768#2 -686638891#4 -686638891#3 -686638891#2 -686638891#1 -686638891#0 686638892#2 686638892#3 686638892#4 686638892#5 -686638888"/>
    </vehicle>
    <vehicle id="Trip-17" depart="0.00">
        <route edges="38285536#0 38285536#1 38285536#2 38285536#3 38285536#4 38285536#5 38285536#6 38285536#7 38285536#8 38285536#9 38285536#10 38285536#11 38285536#12 38285536#13 38285536#14 38285536#15 55093325 38285530#4 38285530#5 38285530#6 38285530#7 38285530#8 38285530#9"/>
    </vehicle>
    <vehicle id="Trip-18" depart="0.00">
        <route edges="761931642#0 761931642#1 153834046#0 153834046#1 153834046#2 153834046#3 153834046#4 153834046#5 153834046#6 153834046#7 34888301 689731684#2 689731684#3 766178504 689731686#1 24893934#1 24893934#2 24893934#3 28797819#0 28797819#1 28797819#2 38285536#5 38285536#6 38285536#7 38285536#8 38285536#9 38285536#10 38285536#11 38285536#12 38285536#13 38285536#14 38285536#15 38285536#16 38285536#17 38285536#18 38285536#19 54733120#6 54733120#7 54733120#8 54733120#9 54733120#10 54733120#11 54733120#12 54733120#13 54733120#14 54733120#15 54733120#16 54733120#17 54733120#18 54733120#19 54733120#20 54733120#21 54733120#22 54733120#23 54733120#24 54733120#25 25049020 151170462 38284625 38284622#4 38284622#5 38284622#6 38284622#7 725768768#0 725768768#1 725768768#2 725768768#3 725768768#4 725768768#5 725768768#6 725768768#7 -686638886#4 -686638886#3 -686638886#2 686638883#0"/>
    </vehicle>
    <vehicle id="Trip-19" depart="0.00">
        <route edges="24893934#1 24893934#2 24893934#3 28797819#0 28797819#1 28797819#2 38285536#5 38285536#6 38285536#7 38285536#8 38285536#9 38285536#10 38285536#11 38285536#12 38285536#13 38285536#14 38285536#15 38285536#16 38285536#17 38285536#18 38285536#19 54733120#6 54733120#7 54733120#8 54733120#9 54733120#10 54733120#11 54733120#12 54733120#13 54733120#14 54733120#15 54733120#16 54733120#17 54733120#18 54733120#19 54733120#20 54733120#21 54733120#22 54733120#23 54733120#24 174532759#0 174532759#1 -233125812#2 -233125812#1 -233125812#0 32502142#2 -668472056#2 -46970354#1 668472058#1 -668472058#1"/>
    </vehicle>
    <vehicle id="Trip-20" depart="0.00">
        <route edges="54722592#0 -690188432 54718367#2 -45415949 389856553#2 389856553#3 389856553#4 389856553#5 523721000 38421931#1 -28797885#1 -28797885#0 28797819#1 28797819#2 38285536#5 38285536#6 38285536#7 38285536#8 38285536#9 38285536#10 38285536#11 38285536#12 38285536#13 38285536#14 38285536#15 38285536#16 38285536#17 38285536#18 38285536#19 54733120#6 54733120#7 54733120#8 54733120#9 54733120#10 54733120#11 54733120#12 54733120#13 54733120#14 54733120#15 54733120#16 54733120#17 54733120#18 54733120#19 54733120#20 54733120#21 54733120#22 54733120#23 54733120#24 174532759#0 174532759#1 174532759#2 174532759#3 174532759#4 174532759#5 174532759#6 38284630#5 38284630#6 38284630#7 38284630#8 29420059#0 29420059#1 668463064 719666839#1"/>
    </vehicle>
    <vehicle id="Trip-21" depart="0.00">
        <route edges="-725809134#13 -725809134#12 -725809134#11 -690692705#3 -690721682#2 -690721682#1 -690721682#0 -725768768#26"/>
    </vehicle>
    <vehicle id="Trip-22" depart="0.00">
        <route edges="510256978 38285536#2 38285536#3 38285536#4 38285536#5 38285536#6 38285536#7 38285536#8 38285536#9 38285536#10 38285536#11 38285536#12 510256970#0 510256970#2 510256970#3 510256970#4 510256970#5 510256970#6 510256970#7 510256970#8 689731679#0 689731679#2 24764172#0"/>
    </vehicle>
    <vehicle id="Trip-23" depart="0.00">
        <route edges="38284630#8 29420059#0 29420059#1 29420059#2 754177479#0 38284619#0 38284619#1 38284619#2 38284619#3 38284619#4 38284619#5 38284619#6 38284619#7 233125859#0 233125859#1 233125859#2 233125859#3 233125859#4 719320360#5 719320360#6 719320360#7 54733120#24 54733120#25 25049020 151170462 38284625 38427034#0 38427034#1"/>
    </vehicle>
    <vehicle id="Trip-24" depart="0.00">
        <route edges="38421931#5 38285536#0 38285536#1 38285536#2 38285536#3 38285536#4 38285536#5 38285536#6 38285536#7 38285536#8 38285536#9 38285536#10 38285536#11 38285536#12 38285536#13 38285536#14 38285536#15 38285536#16 38285536#17 38285536#18 38285536#19 54733120#6 54733120#7 54733120#8 54733120#9 54733120#10 54733120#11 54733120#12 54733120#13 54733120#14 54733120#15 54733120#16 54733120#17 54733120#18 54733120#19 54733120#20 54733120#21 54733120#22 54733120#23 54733120#24 54733120#25 25049020 151170462 38284625 38284622#4 38284622#5 38284622#6 38284622#7 725768768#0 725768768#1 725768768#2 725768768#3 725768768#4 725768768#5 725768768#6 725768768#7 725768768#8 725768768#9 725768768#10 725768768#11 725768768#12 -688594559#4 -688594559#3 -688594559#2 -688594559#1 688594559#1"/>
    </vehicle>
    <vehicle id="Trip-25" depart="0.00">
        <route edges="-192432426#0 192432426#0 192432426#1 192432426#2 192432426#3 389856553#7 30066013#0 30066013#1 30066013#2 30066013#3 30066013#4 30066013#5 30066013#6 30066013#7 689731684#1 689731684#2 689731684#3 766178504 689731686#1 24893934#1 24893934#2 24893934#3 28797819#0 28797819#1 28797819#2 38285536#5 38285536#6 38285536#7 38285536#8 38285536#9 38285536#10 38285536#11 38285536#12 38285536#13 38285536#14 38285536#15 38285536#16 38285536#17 38285536#18 38285536#19 54733120#6 54733120#7 54733120#8 54733120#9 54733120#10 54733120#11 54733120#12 54733120#13 54733120#14 54733120#15 54733120#16 54733120#17 54733120#18 54733120#19 54733120#20 54733120#21 32502011#0 32502011#1 32502011#2 32502011#3 32502011#4 32502011#5 32502011#6 32502011#7 32502011#8 32502011#9 32502011#10 32502011#11 32502011#12 32502011#13 32502011#14 32502122#0 48981689#1"/>
    </vehicle>
    <vehicle id="Trip-26" depart="0.00">
        <route edges="668472045 -668472045 46970334#1 46970334#2 -46970354#6 668472051#2 32502142#10 719320360#0 719320360#1 719320360#2 719320360#3 719320360#4 719320360#5 719320360#6 719320360#7 54733120#24 174532759#0 174532759#1 174532759#2 174532759#3 174532759#4 174532759#5 39887295 28971023#1 28971023#2 28971023#3 38284647#1 38284647#2 38284647#3 38284647#4 38284647#6 38284647#7 38284647#8 38284647#9 54733117#0 54733117#1 38285530#3 38285530#4 38285530#5 38285530#6 38285530#7 38285530#8 38285530#9 38285530#10 689677058 38285536#10 38285536#11 38285536#12 510256970#0 510256970#2 510256970#3 510256970#4 510256970#5 510256970#6 510256970#7 689731686#0 689731686#1 24893934#1 24893934#2 24893934#3 38421931#0 38421931#1 38421931#2 38421931#3 38421931#4 -690200121 -451530845#0"/>
    </vehicle>
    <vehicle id="Trip-27" depart="0.00">
        <route edges="28797819#1 28797819#2 38285536#5 38285536#6 38285536#7 38285536#8 38285536#9 38285536#10 38285536#11 38285536#12 510256970#0 510256970#2 510256970#3 510256970#4 510256970#5 510256970#6 510256970#7 689731686#0 689731686#1 24893934#1 24893934#2 686699155 30066013#1 30066013#2 30066013#3 30066013#4 41193583 153834046#4 153834046#5 153834046#6 153834046#7 153834046#8"/>
    </vehicle>
    <vehicle id="Trip-28" depart="0.00">
        <route edges="50220395#1 50220395#3 50220395#4 50220395#5 50220395#6 50220395#7 50220395#8 38284647#16 689928611#0 689928611#1 689928611#2 689928611#3 689928611#4 689928611#5 689928611#6 689731672#4 24764150#0 24764150#1 24764150#2 24764150#3 24764150#4 24764150#5 24764150#6 24764150#7 510256968 510256970#2"/>
    </vehicle>
    <vehicle id="Trip-29" depart="0.00">
        <route edges="38284630#0 38284630#1 38284630#2 38284630#3 28971023#0 28971023#1 28971023#2 28971023#3 38284647#1 38284647#2 38284647#3 38284647#4 39887297 54733120#12 54733120#13 54733120#14 54733120#15 54733120#16 54733120#17 54733120#18 54733120#19 54733120#20 54733120#21 54733120#22 54733120#23 54733120#24 54733120#25 25049020 151170462 38284625 38284622#4 38284622#5 38284622#6 38284622#7 725768768#0 725768768#1 725768768#2 725768768#3 725768768#4 725768768#5 725768768#6 725768768#7 725768768#8 725768768#9 725768768#10 725768768#11 725768768#12 725768768#13 725768768#14 -46971865#20 -46971865#19 -46971865#18 -46971865#17 -46971865#16 -46971865#15 -46971865#14 -46971865#13 -46971865#12 -46971865#11 -46971865#10 -46971865#9 -46971865#8 -46971865#7 -46971865#6 -46971865#5 -46971865#4 -46971865#3 725446133 -725446133"/>
    </vehicle>
    <vehicle id="Trip-30" depart="0.00">
        <route edges="30066013#6 30066013#7 689731684#1 689731684#2 689731684#3 766178504 689731686#1 24893934#1 153834015 54722592#0 -690188432 54718367#2 -45415949 389856553#2"/>
    </vehicle>
    <vehicle id="Trip-31" depart="0.00">
        <route edges="28797881#3 38421931#4 38421931#5 38285536#0 38285536#1 38285536#2 38285536#3 38285536#4 38285536#5 38285536#6 38285536#7 38285536#8 38285536#9 38285536#10 38285536#11 38285536#12 510256970#0 510256970#2 510256970#3 510256970#4 510256970#5 510256970#6 510256970#7 510256970#8 689731679#0 556525474 153834046#11 153834046#12 153834046#13 153834046#14 153834046#15 153834046#16 33823689#0 33823689#1 -33823689#1"/>
    </vehicle>
    <vehicle id="Trip-32" depart="0.00">
        <route edges="38284630#3 28971023#0 28971023#1 28971023#2 28971023#3 38284647#1 38284647#2 38284647#3 38284647#4 38284647#6 38284647#7 38284647#8 38284647#9 54733117#0 54733117#1 38285530#3 38285530#4 38285530#5 38285530#6 38285530#7 38285530#8 38285530#9 38285530#10 689677058 38285536#10 38285536#11 38285536#12 510256970#0 510256970#2 510256970#3 510256970#4 510256970#5 510256970#6 510256970#7 689731686#0 689731686#1 24893934#1 24893934#2 24893934#3 28797819#0 28797881#0 28797881#1"/>
    </vehicle>
    <vehicle id="Trip-33" depart="0.00">
        <route edges="38284624 38284647#0 38284647#1 38284647#2 38284647#3 38284647#4 38284647#6 38284647#7 38284647#8 38284647#9 54733117#0 54733117#1 38285530#3 38285530#4 38285530#5 38285530#6 38285530#7 38285530#8 38285530#9 38285530#10 689677058 38285536#10 38285536#11 38285536#12 510256970#0 510256970#2 510256970#3 510256970#4 510256970#5 510256970#6 510256970#7 689731686#0 689731686#1 24893934#1 153834015 54722592#0 -690188432 54718367#2 -45415949 389856553#2 389856553#3 389856553#4 389856553#5 389856553#6 -192432426#3 -192432426#2"/>
    </vehicle>
    <vehicle id="Trip-34" depart="0.00">
        <route edges="38427387#0 38427387#1 24764157#1 24764157#2 24764150#0 24764150#1 24764150#2 24764150#3 24764150#4 24764150#5 24764150#6 24764150#7 24764150#8 38285536#15 38285536#16 38285536#17 38285536#18 38285536#19 54733120#6 54733120#7 54733120#8 54733120#9 54733120#10 54733120#11 54733120#12 54733120#13 54733120#14 54733120#15 54733120#16 54733120#17 54733120#18 54733120#19 54733120#20 54733120#21 54733120#22 54733120#23 54733120#24 174532759#0 174532759#1 -233125812#2 -233125812#1 -233125812#0 32502142#2 -668472056#2 -46970354#1 -46970354#0 38284619#4 38284619#5 38284619#6"/>
    </vehicle>
    <vehicle id="Trip-35" depart="0.00">
        <route edges="689731686#0 689731686#1 24893934#1 24893934#2 686699155 30066013#1 30066013#2 30066013#3 30066013#4 30066013#5 30066013#6 -34888236"/>
    </vehicle>
    <vehicle id="Trip-36" depart="0.00">
        <route edges="724732943#1 32501665#0 32501665#1 32501665#2 32501665#3 32501665#4 50220395#4 50220395#5 50220395#6 50220395#7 54733120#1 54733120#3 54733120#5 54733120#6 54733120#7 54733120#8 54733120#9 54733120#10 54733120#11 54733120#12 54733120#13 54733120#14 54733120#15 54733120#16 54733120#17 54733120#18 54733120#19 54733120#20 54733120#21 54733120#22 233125725 -233125859#5 -233125859#4 233125798#0 233125798#1 32502142#8 32502142#9 32502142#10 32502142#11 -46970334#3"/>
    </vehicle>
    <vehicle id="Trip-37" depart="0.00">
        <route edges="233125812#2 174532759#2 174532759#3 174532759#4 174532759#5 39887295 28971023#1 28971023#2 28971023#3 38284647#1 38284647#2 38284647#3 38284647#4 38284647#6 38284647#7 38284647#8 38284647#9 38284647#10 38284647#11 38284647#12 38284647#13 38284647#14 38284647#15 38284647#16 689928611#0 689928611#1 689928611#2 689928611#3 689928611#4 723788230 903839542#0 903839542#1 903839542#2 903839542#3 903839542#4 -776009864"/>
    </vehicle>
    <vehicle id="Trip-38" depart="0.00">
        <route edges="668472043#2 32502142#9 32502142#10 719320360#0 719320360#1 719320360#2 719320360#3 719320360#4 719320360#5 719320360#6 719320360#7 54733120#24 54733120#25 25049020 916598040 174532997#1"/>
    </vehicle>
    <vehicle id="Trip-39" depart="0.00">
        <route edges="50220395#4 50220395#5 50220395#6 50220395#7 54733120#1 54733120#3 54733120#5 54733120#6 54733120#7 54733120#8 54733120#9 54733120#10 54733120#11 54733120#12 54733120#13 54733120#14 54733120#15 54733120#16 54733120#17 54733120#18 54733120#19 54733120#20 54733120#21 54733120#22 54733120#23 54733120#24 54733120#25 25049020 151170462 38284625 38284622#4 38284622#5 38284622#6 38284622#7 725768768#0 725768768#1 725768768#2 725768768#3 725768768#4 725768768#5 725768768#6 725768768#7 725768768#8 725768768#9 725768768#10 725768768#11 725768768#12 725768768#13 725768768#14 725768768#15 725768768#16 725768768#17 725768768#18 725768768#19 -725446136#1 -725446136#0 -686638871#0"/>
    </vehicle>
    <vehicle id="Trip-40" depart="0.00">
        <route edges="50219737#0 50219737#2 50219737#3 689731672#0 689731672#1 686693015#0 686693015#1 686693015#2 686693015#3 686693015#4 686693015#5 903839542#0 903839542#1 903839542#2 903839542#3 903839542#4 903839542#5 903839542#6 54733120#0 54733120#1 54733120#3 54733120#5 54733120#6 54733120#7 54733120#8 54733120#9 54733120#10 54733120#11 54733120#12 54733120#13 54733120#14 54733120#15 54733120#16 54733120#17 54733120#18 54733120#19 54733120#20 54733120#21 32502011#0 32502011#1 32502011#2 32502011#3 32502011#4 32502011#5 32502011#6 32502011#7 32502011#8 32502011#9 32502011#10 32502011#11 -39887293#9 -39887293#8 -668472049"/>
    </vehicle>
    <vehicle id="Trip-41" depart="0.00">
        <route edges="-41192469#1 -41192469#0 389856553#3 389856553#4 389856553#5 523721000 38421931#1 -28797885#1 -28797885#0 28797819#1 28797819#2 38285536#5 38285536#6 38285536#7 38285536#8 38285536#9 38285536#10 38285536#11 38285536#12 38285536#13 38285536#14 38285536#15 38285536#16 38285536#17 38285536#18 38285536#19 54733120#6 54733120#7 54733120#8 54733120#9 54733120#10 54733120#11 54733120#12 54733120#13 54733120#14 54733120#15 54733120#16 54733120#17 54733120#18 54733120#19 54733120#20 54733120#21 32502011#0"/>
    </vehicle>
    <vehicle id="Trip-42" depart="0.00">
        <route edges="54733120#13 54733120#14 54733120#15 54733120#16 54733120#17 54733120#18 54733120#19 54733120#20 54733120#21 54733120#22 54733120#23 54733120#24 54733120#25 25049020 151170462 38284625 38284622#4 38284622#5 38284622#6 38284622#7 725768768#0 -686644927#6 -686644927#4 -686644927#2 686644925"/>
    </vehicle>
    <vehicle id="Trip-43" depart="0.00">
        <route edges="54718367#0 -41192469#1 -41192469#0 389856553#3 389856553#4 389856553#5 389856553#6 389856553#7 28800882 153834046#0 153834046#1 153834046#2 153834046#3 153834046#4 153834046#5 153834046#6 153834046#7 153834046#8 153834046#9 153834046#10 153834046#11 153834046#12 153834046#13 153834046#14 153834046#15 153834046#16"/>
    </vehicle>
    <vehicle id="Trip-44" depart="0.00">
        <route edges="689731686#1 24893934#1 24893934#2 24893934#3 28797819#0 28797819#1 28797819#2 38285536#5 38285536#6 38285536#7 38285536#8 38285536#9 38285536#10 38285536#11 38285536#12 38285536#13 38285536#14 38285536#15 38285536#16 38285536#17 38285536#18 38285536#19 54733120#6 54733120#7 54733120#8 54733120#9 54733120#10 54733120#11 54733120#12 54733120#13 54733120#14 54733120#15 54733120#16 54733120#17 54733120#18 54733120#19 54733120#20 54733120#21 54733120#22 54733120#23 54733120#24 54733120#25 25049020 151170462 38284625 38284622#4 38284622#5 38284622#6 38284622#7 725768768#0 725768768#1 725768768#2 725768768#3 725768768#4 725768768#5 725768768#6 725768768#7 725768768#8 725768768#9 725768768#10 725768768#11 725768768#12 725768768#13 725768768#14 725768768#15 725768768#16 -725768762#1 -725768762#0 688594560#4 688594560#5 688594560#6 -688596672#2 -688596672#1 -688594562#5 -688594562#4"/>
    </vehicle>
    <vehicle id="Trip-45" depart="0.00">
        <route edges="689731672#4 24764150#0 24764150#1 24764150#2 24764150#3 24764150#4 24764150#5 24764150#6 24764150#7 24764150#8 38285536#15 38285536#16 38285536#17 38285536#18 38285536#19 54733120#6 54733120#7 54733120#8 54733120#9 54733120#10 54733120#11 54733120#12 54733120#13 54733120#14 54733120#15 54733120#16 54733120#17 54733120#18 54733120#19 54733120#20 54733120#21 54733120#22 54733120#23 54733120#24 54733120#25 25049020 916598040 174532997#1"/>
    </vehicle>
    <vehicle id="Trip-46" depart="0.00">
        <route edges="-724687125 724687133#1 32502011#2 32502011#3 32502011#4 32502011#5 -233125856#5 -233125856#4 233125798#1 32502142#8 32502142#9 -668472051#2 668472051#2"/>
    </vehicle>
    <vehicle id="Trip-47" depart="0.00">
        <route edges="-724687136#1 -724687136#0 54733120#15 54733120#16 54733120#17 54733120#18 54733120#19 54733120#20 54733120#21 54733120#22 54733120#23 54733120#24 174532759#0 174532759#1 174532759#2 174532759#3 174532759#4 174532759#5 39887295 28971023#1 28971023#2 28971023#3 38284647#1 38284647#2 38284647#3 38284647#4 38284647#6 38284647#7 38284647#8 38284647#9 54733117#0 54733117#1 38285530#3 38285530#4 38285530#5 38285530#6 38285530#7 38285530#8 38285530#9 38285530#10 689677058 38285536#10 38285536#11 38285536#12 510256970#0 510256970#2 510256970#3 510256970#4 510256970#5 510256970#6 510256970#7 689731686#0 689731686#1 24893934#1 153834015 54722592#0 -690188432 54718367#2 -45415949 45415949"/>
    </vehicle>
    <vehicle id="Trip-48" depart="0.00">
        <route edges="30066013#6 30066013#7 689731684#1 689731684#2 689731684#3 766178504 689731686#1 24893934#1 24893934#2 24893934#3 28797819#0 28797819#1 28797819#2 38285536#5 38285536#6 38285536#7 38285536#8 38285536#9 38285536#10 38285536#11 38285536#12 38285536#13 38285536#14 38285536#15 38285536#16 38285536#17 38285536#18 38285536#19 54733120#6 54733120#7 54733120#8 54733120#9 54733120#10 54733120#11 54733120#12 54733120#13 54733120#14 54733120#15 54733120#16 54733120#17 54733120#18 54733120#19 54733120#20 54733120#21 54733120#22 54733120#23 54733120#24 54733120#25 25049020 151170462 38284625 38284622#4 38284622#5 38284622#6 38284622#7 725768768#0 725768768#1 725768768#2 725768768#3 725768768#4 725768768#5 725768768#6 725768768#7 725768768#8 725768768#9 725768768#10 725768768#11 725768768#12 725768768#13 725768768#14 -46971865#20 -46971865#19 -46971865#18 -46971865#17 -46971865#16 -46971865#15 -46971865#14 -46971865#13 -46971865#12 -46971865#11 -46971865#10 -46971865#9 -46971865#8 -46971865#7 -46971865#6 -46971865#5 686638875 725446132#0 725446132#1 725446132#2 725446132#3"/>
    </vehicle>
    <vehicle id="Trip-49" depart="0.00">
        <route edges="28856776#5 28856893#0 -28856981#4 -28856981#3 -28856981#2 -28856981#1 -28856981#0 903839542#0 903839542#1 903839542#2 903839542#3 903839542#4 903839542#5 903839542#6 54733120#0 54733120#1 54733120#3 54733120#5 54733120#6 54733120#7 54733120#8 54733120#9 54733120#10 54733120#11 54733120#12 54733120#13 54733120#14 54733120#15 54733120#16 54733120#17 54733120#18 54733120#19 54733120#20 54733120#21 54733120#22 54733120#23 54733120#24 174532759#0 174532759#1 174532759#2 174532759#3 174532759#4 174532759#5 174532759#6 38284630#5 38284630#6 38284630#7 -46970326#4 -46970326#3 -46970326#2 46970326#2"/>
    </vehicle>
    <vehicle id="Trip-50" depart="0.00">
        <route edges="38284630#2 38284630#3 28971023#0 28971023#1 28971023#2 28971023#3 38284647#1 38284647#2 38284647#3 38284647#4 38284647#6 38284647#7 38284647#8 38284647#9 38284647#10 38284647#11 38284647#12 38284647#13 38284647#14 38284647#15 38284647#16 689928611#0 689928611#1 689928611#2 689928611#3 689928611#4 689928611#5 689928611#6"/>
    </vehicle>
    <vehicle id="Trip-51" depart="0.00">
        <route edges="28856893#0 -28856981#4 -28856981#3 -28856981#2 -28856981#1 -28856981#0 903839542#0 903839542#1 903839542#2 903839542#3 903839542#4 903839542#5 903839542#6 54733120#0 54733120#1 54733120#3 54733120#5 54733120#6 54733120#7 54733120#8 54733120#9 54733120#10 54733120#11 54733120#12 54733120#13 54733120#14 54733120#15 54733120#16 54733120#17 54733120#18 54733120#19 54733120#20 54733120#21 32502011#0 32502011#1 32502011#2 32502011#3 32502011#4 32502011#5 -233125856#5"/>
    </vehicle>
    <vehicle id="Trip-52" depart="0.00">
        <route edges="-28797885#1 -28797885#0 28797819#1 28797819#2 38285536#5 38285536#6 38285536#7 38285536#8 38285536#9 38285536#10 38285536#11 38285536#12 38285536#13 38285536#14 38285536#15 38285536#16 38285536#17 38285536#18 38284647#13 38284647#14 38284647#15 38284647#16 689928611#0 689928611#1 689928611#2 689928611#3 689928611#4 723788230 28856981#0 28856981#1 -28856969#1"/>
    </vehicle>
    <vehicle id="Trip-53" depart="0.00">