<?xml version="1.0" encoding="UTF-8"?>
<!-- generated on 2022-07-03 23:39:26.564396 by main.py v1_10_0+0000-83496a5972
  options: <doubleminus>odEdges ./odEdges.txt <doubleminus>clientPercentage 3
-->
<routes xmlns:xsi="http://www.w3.org/2001/XMLSchema-instance" xsi:noNamespaceSchemaLocation="http://sumo.dlr.de/xsd/routes_file.xsd">
    <trip id="Trip-1" depart="0.00" from="38285536#7" to="54733120#23"/>
    <trip id="Trip-2" depart="0.00" from="-46970326#4" to="54733120#22"/>
    <trip id="Trip-3" depart="0.00" from="153834046#8" to="510256968"/>
    <trip id="Trip-4" depart="0.00" from="-38284622#0" to="-725809134#7"/>
    <trip id="Trip-5" depart="0.00" from="50219737#0" to="724687136#0"/>
    <trip id="Trip-6" depart="0.00" from="689928611#1" to="510256970#6"/>
    <trip id="Trip-7" depart="0.00" from="153834046#5" to="510256970#0"/>
    <trip id="Trip-8" depart="0.00" from="28856894#3" to="-48981675#2"/>
    <trip id="Trip-9" depart="0.00" from="510256970#2" to="38285536#5"/>
    <trip id="Trip-10" depart="0.00" from="38427387#0" to="510256970#7"/>
    <trip id="Trip-11" depart="0.00" from="54722592#0" to="-46971823#0"/>
    <trip id="Trip-12" depart="0.00" from="38427387#0" to="-688592563#0"/>
    <trip id="Trip-13" depart="0.00" from="-28856981#5" to="688596687"/>
    <trip id="Trip-14" depart="0.00" from="28856952#1" to="-28856981#1"/>
    <trip id="Trip-15" depart="0.00" from="34888245" to="682417505#4"/>
    <trip id="Trip-16" depart="0.00" from="38284630#7" to="-686638888"/>
    <trip id="Trip-17" depart="0.00" from="38285536#0" to="38285530#9"/>
    <trip id="Trip-18" depart="0.00" from="761931642#0" to="686638883#0"/>
    <trip id="Trip-19" depart="0.00" from="24893934#1" to="-668472058#1"/>
    <trip id="Trip-20" depart="0.00" from="54722592#0" to="719666839#1"/>
    <trip id="Trip-21" depart="0.00" from="-725809134#13" to="-725768768#26"/>
    <trip id="Trip-22" depart="0.00" from="510256978" to="24764172#0"/>
    <trip id="Trip-23" depart="0.00" from="38284630#8" to="38427034#1"/>
    <trip id="Trip-24" depart="0.00" from="38421931#5" to="688594559#1"/>
    <trip id="Trip-25" depart="0.00" from="-192432426#0" to="48981689#1"/>
    <trip id="Trip-26" depart="0.00" from="668472045" to="-451530845#0"/>
    <trip id="Trip-27" depart="0.00" from="28797819#1" to="153834046#8"/>
    <trip id="Trip-28" depart="0.00" from="50220395#1" to="510256970#2"/>
    <trip id="Trip-29" depart="0.00" from="38284630#0" to="-725446133"/>
    <trip id="Trip-30" depart="0.00" from="30066013#6" to="389856553#2"/>
    <trip id="Trip-31" depart="0.00" from="28797881#3" to="-33823689#1"/>
    <trip id="Trip-32" depart="0.00" from="38284630#3" to="28797881#1"/>
    <trip id="Trip-33" depart="0.00" from="38284624" to="-192432426#2"/>
    <trip id="Trip-34" depart="0.00" from="38427387#0" to="38284619#6"/>
    <trip id="Trip-35" depart="0.00" from="689731686#0" to="-34888236"/>
    <trip id="Trip-36" depart="0.00" from="724732943#1" to="-46970334#3"/>
    <trip id="Trip-37" depart="0.00" from="233125812#2" to="-776009864"/>
    <trip id="Trip-38" depart="0.00" from="668472043#2" to="174532997#1"/>
    <trip id="Trip-39" depart="0.00" from="50220395#4" to="-686638871#0"/>
    <trip id="Trip-40" depart="0.00" from="50219737#0" to="-668472049"/>
    <trip id="Trip-41" depart="0.00" from="-41192469#1" to="32502011#0"/>
    <trip id="Trip-42" depart="0.00" from="54733120#13" to="686644925"/>
    <trip id="Trip-43" depart="0.00" from="54718367#0" to="153834046#16"/>
    <trip id="Trip-44" depart="0.00" from="689731686#1" to="-688594562#4"/>
    <trip id="Trip-45" depart="0.00" from="689731672#4" to="174532997#1"/>
    <trip id="Trip-46" depart="0.00" from="-724687125" to="668472051#2"/>
    <trip id="Trip-47" depart="0.00" from="-724687136#1" to="45415949"/>
    <trip id="Trip-48" depart="0.00" from="30066013#6" to="725446132#3"/>
    <trip id="Trip-49" depart="0.00" from="28856776#5" to="46970326#2"/>
    <trip id="Trip-50" depart="0.00" from="38284630#2" to="689928611#6"/>
    <trip id="Trip-51" depart="0.00" from="28856893#0" to="-233125856#5"/>
    <trip id="Trip-52" depart="0.00" from="-28797885#1" to="-28856969#1"/>
    <trip id="Trip-53" depart="0.00" from="-46970326#4" to="-686638870"/>
    <trip id="Trip-54" depart="0.00" from="174532759#6" to="192432426#1"/>
    <trip id="Trip-55" depart="0.00" from="30066013#2" to="38285536#0"/>
    <trip id="Trip-56" depart="0.00" from="38284624" to="-233125792#0"/>
    <trip id="Trip-57" depart="0.00" from="50220395#0" to="54733120#18"/>
    <trip id="Trip-58" depart="0.00" from="38285530#5" to="-233125859#0"/>
    <trip id="Trip-59" depart="0.00" from="41194045#0" to="54733120#3"/>
    <trip id="Trip-60" depart="0.00" from="28856969#0" to="38421936"/>
    <trip id="Trip-61" depart="0.00" from="690692705#2" to="-688596669#5"/>
    <trip id="Trip-62" depart="0.00" from="-668472056#0" to="38285530#8"/>
    <trip id="Trip-63" depart="0.00" from="38285536#5" to="54722592#1"/>
    <trip id="Trip-64" depart="0.00" from="30065924" to="686638880#6"/>
    <trip id="Trip-65" depart="0.00" from="38284619#7" to="689731675#2"/>
    <trip id="Trip-66" depart="0.00" from="233125771" to="28797885#0"/>
    <trip id="Trip-67" depart="0.00" from="510256968" to="725809134#5"/>
    <trip id="Trip-68" depart="0.00" from="28856893#1" to="-233125812#0"/>
    <trip id="Trip-69" depart="0.00" from="50219737#0" to="28971023#2"/>
    <trip id="Trip-70" depart="0.00" from="-725768780" to="-688594562#0"/>
    <trip id="Trip-71" depart="0.00" from="38427387#1" to="28797881#2"/>
    <trip id="Trip-72" depart="0.00" from="38284630#2" to="-686638871#0"/>
    <trip id="Trip-73" depart="0.00" from="41189194#1" to="28856776#2"/>
    <trip id="Trip-74" depart="0.00" from="38284630#5" to="725809134#6"/>
    <trip id="Trip-75" depart="0.00" from="725768768#26" to="725768780"/>
    <trip id="Trip-76" depart="0.00" from="28856981#2" to="724687135#1"/>
    <trip id="Trip-77" depart="0.00" from="38285536#17" to="28856981#2"/>
    <trip id="Trip-78" depart="0.00" from="719320360#7" to="686638877#0"/>
    <trip id="Trip-79" depart="0.00" from="54733120#1" to="-233125798#0"/>
    <trip id="Trip-80" depart="0.00" from="24893934#1" to="-686638876#3"/>
    <trip id="Trip-81" depart="0.00" from="38285536#0" to="-233125771"/>
    <trip id="Trip-82" depart="0.00" from="-233125692" to="38285536#4"/>
    <trip id="Trip-83" depart="0.00" from="725809134#14" to="46971875"/>
    <trip id="Trip-84" depart="0.00" from="24764150#4" to="-38284622#0"/>
    <trip id="Trip-85" depart="0.00" from="-686638878" to="-686638877#2"/>
    <trip id="Trip-86" depart="0.00" from="-668509993#1" to="151170462"/>
    <trip id="Trip-87" depart="0.00" from="30082378#4" to="32502011#15"/>
    <trip id="Trip-88" depart="0.00" from="28856632#6" to="38284647#2"/>
    <trip id="Trip-89" depart="0.00" from="-233125692" to="-725768768#1"/>
    <trip id="Trip-90" depart="0.00" from="38421935#1" to="-28797891#1"/>
    <trip id="Trip-91" depart="0.00" from="-668472055#0" to="48981689#0"/>
    <trip id="Trip-92" depart="0.00" from="28797819#0" to="151170462"/>
    <trip id="Trip-93" depart="0.00" from="38285536#5" to="668463064"/>
    <trip id="Trip-94" depart="0.00" from="389856553#4" to="725384451#7"/>
    <trip id="Trip-95" depart="0.00" from="32502142#0" to="668472053#1"/>
    <trip id="Trip-96" depart="0.00" from="-668472047" to="38284619#2"/>
    <trip id="Trip-97" depart="0.00" from="38421935#0" to="41193355"/>
    <trip id="Trip-98" depart="0.00" from="54718367#0" to="-724687135#2"/>
    <trip id="Trip-99" depart="0.00" from="-719320359" to="689731679#0"/>
    <trip id="Trip-100" depart="0.00" from="38427387#1" to="41193355"/>
    <trip id="Trip-101" depart="0.00" from="-668472053#0" to="-28797881#2"/>
    <trip id="Trip-102" depart="0.00" from="28856969#0" to="688594558"/>
    <trip id="Trip-103" depart="0.00" from="689928611#1" to="-725809134#10"/>
    <trip id="Trip-104" depart="0.00" from="32501665#1" to="38285530#22"/>
    <trip id="Trip-105" depart="0.00" from="-233125725" to="38285530#9"/>
    <trip id="Trip-106" depart="0.00" from="389856553#2" to="233125859#0"/>
    <trip id="Trip-107" depart="0.00" from="-776009865" to="38285536#7"/>
    <trip id="Trip-108" depart="0.00" from="668472051#1" to="38285536#4"/>
    <trip id="Trip-109" depart="0.00" from="-46970283#1" to="32502122#2"/>
    <trip id="Trip-110" depart="0.00" from="38421935#0" to="24764150#3"/>
    <trip id="Trip-111" depart="0.00" from="-686638890#2" to="686638888"/>
    <trip id="Trip-112" depart="0.00" from="46971972#4" to="688596683#2"/>
    <trip id="Trip-113" depart="0.00" from="-668472051#0" to="28856632#3"/>
    <trip id="Trip-114" depart="0.00" from="686693015#4" to="686638895#0"/>
    <trip id="Trip-115" depart="0.00" from="668509993#1" to="-688592562#0"/>
    <trip id="Trip-116" depart="0.00" from="761931642#0" to="48981689#1"/>
    <trip id="Trip-117" depart="0.00" from="689677054" to="24893934#1"/>
    <trip id="Trip-118" depart="0.00" from="41193583" to="28797819#0"/>
    <trip id="Trip-119" depart="0.00" from="-233125812#0" to="45415943"/>
    <trip id="Trip-120" depart="0.00" from="689731663#1" to="686693015#2"/>
    <trip id="Trip-121" depart="0.00" from="-725809134#0" to="-38284622#0"/>
    <trip id="Trip-122" depart="0.00" from="46970283#6" to="686638888"/>
    <trip id="Trip-123" depart="0.00" from="38285536#5" to="-28856981#4"/>
    <trip id="Trip-124" depart="0.00" from="32501665#0" to="-686638869"/>
    <trip id="Trip-125" depart="0.00" from="724732945#1" to="233125859#6"/>
    <trip id="Trip-126" depart="0.00" from="-46971762#0" to="-46971762#14"/>
    <trip id="Trip-127" depart="0.00" from="-725768768#30" to="688594559#2"/>
    <trip id="Trip-128" depart="0.00" from="-46971906#1" to="688594558"/>
    <trip id="Trip-129" depart="0.00" from="724687133#0" to="686694619"/>
    <trip id="Trip-130" depart="0.00" from="50219737#0" to="153834046#7"/>
    <trip id="Trip-131" depart="0.00" from="24893934#2" to="-38284622#2"/>
    <trip id="Trip-132" depart="0.00" from="761931642#1" to="-725768759"/>
    <trip id="Trip-133" depart="0.00" from="50219737#0" to="30066013#6"/>
    <trip id="Trip-134" depart="0.00" from="-686638890#2" to="-46971762#14"/>
    <trip id="Trip-135" depart="0.00" from="28856776#0" to="38284647#4"/>
    <trip id="Trip-136" depart="0.00" from="28856969#1" to="-724687125"/>
    <trip id="Trip-137" depart="0.00" from="38285536#4" to="389856553#4"/>
    <trip id="Trip-138" depart="0.00" from="32501674#2" to="233125798#0"/>
    <trip id="Trip-139" depart="0.00" from="38421935#0" to="668472049"/>
    <trip id="Trip-140" depart="0.00" from="28971023#1" to="153834046#20"/>
    <trip id="Trip-141" depart="0.00" from="50219737#0" to="-48981707"/>
    <trip id="Trip-142" depart="0.00" from="38284647#6" to="153834015"/>
    <trip id="Trip-143" depart="0.00" from="686693015#5" to="-34888306"/>
    <trip id="Trip-144" depart="0.00" from="38284630#0" to="-686644928"/>
    <trip id="Trip-145" depart="0.00" from="689731663#0" to="38421938"/>
    <trip id="Trip-146" depart="0.00" from="-28856969#1" to="46970283#8"/>
    <trip id="Trip-147" depart="0.00" from="686638874" to="686638886#4"/>
    <trip id="Trip-148" depart="0.00" from="192432426#1" to="-690692704#1"/>
    <trip id="Trip-149" depart="0.00" from="-233125813#1" to="38284647#3"/>
    <trip id="Trip-150" depart="0.00" from="719320360#7" to="-690692704#1"/>
    <trip id="Trip-151" depart="0.00" from="46971762#14" to="-46971906#6"/>
    <trip id="Trip-152" depart="0.00" from="30066013#4" to="689677054"/>
    <trip id="Trip-153" depart="0.00" from="-30082378#0" to="689731672#0"/>
    <trip id="Trip-154" depart="0.00" from="30066013#3" to="38284630#7"/>
    <trip id="Trip-155" depart="0.00" from="50220395#5" to="38427034#0"/>
    <trip id="Trip-156" depart="0.00" from="38285536#5" to="689731663#1"/>
    <trip id="Trip-157" depart="0.00" from="686694619" to="233125812#2"/>
    <trip id="Trip-158" depart="0.00" from="34888301" to="-690692702"/>
    <trip id="Trip-159" depart="0.00" from="38284647#1" to="-233125812#2"/>
    <trip id="Trip-160" depart="0.00" from="28856632#6" to="689731686#0"/>
    <trip id="Trip-161" depart="0.00" from="233125856#3" to="510256970#5"/>
    <trip id="Trip-162" depart="0.00" from="233125798#1" to="38285536#0"/>
    <trip id="Trip-163" depart="0.00" from="-724687136#0" to="54718367#3"/>
    <trip id="Trip-164" depart="0.00" from="38284630#5" to="38284619#7"/>
    <trip id="Trip-165" depart="0.00" from="38284622#0" to="-725431214"/>
    <trip id="Trip-166" depart="0.00" from="668509993#0" to="28856893#0"/>
    <trip id="Trip-167" depart="0.00" from="233125813#2" to="725768768#26"/>
    <trip id="Trip-168" depart="0.00" from="-46970283#3" to="32502122#0"/>
    <trip id="Trip-169" depart="0.00" from="30066013#2" to="233125692"/>
    <trip id="Trip-170" depart="0.00" from="-28797881#1" to="32502011#14"/>
    <trip id="Trip-171" depart="0.00" from="233125798#1" to="-686644924#2"/>
    <trip id="Trip-172" depart="0.00" from="-28857271" to="-34888245"/>
    <trip id="Trip-173" depart="0.00" from="32502011#8" to="688594554"/>
    <trip id="Trip-174" depart="0.00" from="192432426#0" to="28856632#7"/>
    <trip id="Trip-175" depart="0.00" from="54733120#1" to="39887293#8"/>
    <trip id="Trip-176" depart="0.00" from="688592562#2" to="-686638888"/>
    <trip id="Trip-177" depart="0.00" from="686694619" to="-38284622#0"/>
    <trip id="Trip-178" depart="0.00" from="24893934#0" to="233125792#0"/>
    <trip id="Trip-179" depart="0.00" from="689731684#2" to="724687135#1"/>
    <trip id="Trip-180" depart="0.00" from="30066013#6" to="174532997#1"/>
    <trip id="Trip-181" depart="0.00" from="-46970354#1" to="38284622#7"/>
    <trip id="Trip-182" depart="0.00" from="38284630#0" to="-46971823#8"/>
    <trip id="Trip-183" depart="0.00" from="41193433" to="54733120#13"/>
    <trip id="Trip-184" depart="0.00" from="38284630#5" to="38284647#15"/>
    <trip id="Trip-185" depart="0.00" from="233125812#0" to="24893934#0"/>
    <trip id="Trip-186" depart="0.00" from="28800882" to="668472049"/>
    <trip id="Trip-187" depart="0.00" from="24893934#0" to="41193355"/>
    <trip id="Trip-188" depart="0.00" from="724732945#1" to="688596683#2"/>
    <trip id="Trip-189" depart="0.00" from="28797881#0" to="-46971823#8"/>
    <trip id="Trip-190" depart="0.00" from="38285536#9" to="28797819#0"/>
    <trip id="Trip-191" depart="0.00" from="-724732945#2" to="28797819#0"/>
    <trip id="Trip-192" depart="0.00" from="30071527" to="689731672#0"/>
    <trip id="Trip-193" depart="0.00" from="46971762#10" to="46971762#10"/>
    <trip id="Trip-194" depart="0.00" from="-28797881#0" to="34888545#3"/>
    <trip id="Trip-195" depart="0.00" from="-668509990#1" to="24764172#0"/>
    <trip id="Trip-196" depart="0.00" from="-668472056#2" to="682417505#6"/>
    <trip id="Trip-197" depart="0.00" from="32502011#8" to="-28856981#3"/>
    <trip id="Trip-198" depart="0.00" from="32502011#9" to="38285536#5"/>
    <trip id="Trip-199" depart="0.00" from="153834046#2" to="-725440421"/>
    <trip id="Trip-200" depart="0.00" from="41193433" to="-233125812#0"/>
    <trip id="Trip-201" depart="0.00" from="725809134#7" to="-688596687"/>
    <trip id="Trip-202" depart="0.00" from="-28856981#3" to="719320360#2"/>
    <trip id="Trip-203" depart="0.00" from="-28856981#5" to="-34888306"/>
    <trip id="Trip-204" depart="0.00" from="-690200121" to="-686638881#2"/>
    <trip id="Trip-205" depart="0.00" from="38285536#5" to="50219737#4"/>
    <trip id="Trip-206" depart="0.00" from="38421935#0" to="34888545#0"/>
    <trip id="Trip-207" depart="0.00" from="-233125812#0" to="48981689#0"/>
    <trip id="Trip-208" depart="0.00" from="41192491#0" to="-41189275"/>
    <trip id="Trip-209" depart="0.00" from="686638871#0" to="-46971762#10"/>
    <trip id="Trip-210" depart="0.00" from="-233125856#0" to="38421936"/>
    <trip id="Trip-211" depart="0.00" from="724732945#1" to="-233125792#0"/>
    <trip id="Trip-212" depart="0.00" from="688594556" to="-688596683#2"/>
    <trip id="Trip-213" depart="0.00" from="-46970283#4" to="233125813#0"/>
    <trip id="Trip-214" depart="0.00" from="28856893#0" to="46970355"/>
    <trip id="Trip-215" depart="0.00" from="686694619" to="34888245"/>
    <trip id="Trip-216" depart="0.00" from="-668472058#0" to="38285536#6"/>
    <trip id="Trip-217" depart="0.00" from="686693015#2" to="28856894#3"/>
    <trip id="Trip-218" depart="0.00" from="-668472047" to="153834046#7"/>
    <trip id="Trip-219" depart="0.00" from="28856981#2" to="48981707"/>
    <trip id="Trip-220" depart="0.00" from="-28856981#5" to="28797881#3"/>
    <trip id="Trip-221" depart="0.00" from="-724732945#1" to="32502122#0"/>
    <trip id="Trip-222" depart="0.00" from="54722592#0" to="50219737#4"/>
    <trip id="Trip-223" depart="0.00" from="38284622#0" to="686638879"/>
    <trip id="Trip-224" depart="0.00" from="24764150#2" to="28856632#8"/>
    <trip id="Trip-225" depart="0.00" from="233125812#1" to="690692707"/>
    <trip id="Trip-226" depart="0.00" from="725384442" to="688592562#2"/>
    <trip id="Trip-227" depart="0.00" from="-725768768#9" to="-688596667"/>
    <trip id="Trip-228" depart="0.00" from="38421931#5" to="46970283#8"/>
    <trip id="Trip-229" depart="0.00" from="32502011#0" to="192432426#1"/>
    <trip id="Trip-230" depart="0.00" from="38284647#15" to="668472056#2"/>
    <trip id="Trip-231" depart="0.00" from="38421935#0" to="688594559#2"/>
    <trip id="Trip-232" depart="0.00" from="28797819#0" to="38285530#10"/>
    <trip id="Trip-233" depart="0.00" from="38421935#0" to="34888409#0"/>
    <trip id="Trip-234" depart="0.00" from="28797819#2" to="-45415949"/>
    <trip id="Trip-235" depart="0.00" from="761931642#1" to="-46971762#8"/>
    <trip id="Trip-236" depart="0.00" from="-233125856#2" to="689731679#0"/>
    <trip id="Trip-237" depart="0.00" from="38284630#5" to="-686638886#3"/>
    <trip id="Trip-238" depart="0.00" from="-28856981#5" to="25049020"/>
    <trip id="Trip-239" depart="0.00" from="30065924" to="153834046#18"/>
    <trip id="Trip-240" depart="0.00" from="38285536#5" to="32502011#0"/>
    <trip id="Trip-241" depart="0.00" from="28800882" to="725768768#26"/>
    <trip id="Trip-242" depart="0.00" from="-34888236" to="38284647#15"/>
    <trip id="Trip-243" depart="0.00" from="-668472043#2" to="38421931#3"/>
    <trip id="Trip-244" depart="0.00" from="689731686#1" to="38285536#1"/>
    <trip id="Trip-245" depart="0.00" from="32502011#8" to="-38284622#4"/>
    <trip id="Trip-246" depart="0.00" from="50220395#6" to="33823689#1"/>
    <trip id="Trip-247" depart="0.00" from="-686638885#0" to="-688594554"/>
    <trip id="Trip-248" depart="0.00" from="38421935#0" to="38284630#1"/>
    <trip id="Trip-249" depart="0.00" from="24893934#2" to="38421936"/>
    <trip id="Trip-250" depart="0.00" from="-41189275" to="-686644925"/>
    <trip id="Trip-251" depart="0.00" from="54718367#0" to="-688594562#5"/>
    <trip id="Trip-252" depart="0.00" from="725384439#1" to="-725768768#8"/>
    <trip id="Trip-253" depart="0.00" from="50220395#0" to="-686638891#2"/>
    <trip id="Trip-254" depart="0.00" from="233125798#0" to="668472053#1"/>
    <trip id="Trip-255" depart="0.00" from="-34888236" to="689731672#4"/>
    <trip id="Trip-256" depart="0.00" from="-724687136#0" to="-688594560#9"/>
    <trip id="Trip-257" depart="0.00" from="38284630#5" to="-38284622#0"/>
    <trip id="Trip-258" depart="0.00" from="38285536#17" to="-668472058#2"/>
    <trip id="Trip-259" depart="0.00" from="28856952#0" to="-690692702"/>
    <trip id="Trip-260" depart="0.00" from="686644927#4" to="725384438"/>
    <trip id="Trip-261" depart="0.00" from="-690692700#2" to="-46971762#10"/>
    <trip id="Trip-262" depart="0.00" from="-688594560#0" to="-38284622#0"/>
    <trip id="Trip-263" depart="0.00" from="38421935#0" to="153834046#17"/>
    <trip id="Trip-264" depart="0.00" from="-192432426#1" to="-34888245"/>
    <trip id="Trip-265" depart="0.00" from="38421935#0" to="682417505#4"/>
    <trip id="Trip-266" depart="0.00" from="50219737#4" to="-719320359"/>
    <trip id="Trip-267" depart="0.00" from="686638869" to="-38284622#0"/>
    <trip id="Trip-268" depart="0.00" from="233125813#0" to="-46971823#5"/>
    <trip id="Trip-269" depart="0.00" from="-28856969#0" to="725768768#27"/>
    <trip id="Trip-270" depart="0.00" from="38284622#0" to="-725446133"/>
    <trip id="Trip-271" depart="0.00" from="34888245" to="689731684#1"/>
    <trip id="Trip-272" depart="0.00" from="174532664#0" to="-776009865"/>
    <trip id="Trip-273" depart="0.00" from="50220395#6" to="-686638889#2"/>
    <trip id="Trip-274" depart="0.00" from="32501665#3" to="724687129#0"/>
    <trip id="Trip-275" depart="0.00" from="54722592#0" to="754177479#2"/>
    <trip id="Trip-276" depart="0.00" from="46971972#10" to="-688594561#0"/>
    <trip id="Trip-277" depart="0.00" from="28856894#0" to="-46970326#3"/>
    <trip id="Trip-278" depart="0.00" from="688596678#0" to="-38284622#0"/>
    <trip id="Trip-279" depart="0.00" from="690692706#1" to="725768768#26"/>
    <trip id="Trip-280" depart="0.00" from="38285536#3" to="28856981#5"/>
    <trip id="Trip-281" depart="0.00" from="32501674#0" to="38427034#1"/>
    <trip id="Trip-282" depart="0.00" from="50220395#6" to="-38284622#7"/>
    <trip id="Trip-283" depart="0.00" from="510256970#5" to="686638894#2"/>
    <trip id="Trip-284" depart="0.00" from="-32501920" to="-38284622#0"/>
    <trip id="Trip-285" depart="0.00" from="-668472058#2" to="41193583"/>
    <trip id="Trip-286" depart="0.00" from="-28856981#4" to="725768768#30"/>
    <trip id="Trip-287" depart="0.00" from="38284647#2" to="-725768768#3"/>
    <trip id="Trip-288" depart="0.00" from="34888245" to="686638871#0"/>
    <trip id="Trip-289" depart="0.00" from="-724732944#1" to="38285536#2"/>
    <trip id="Trip-290" depart="0.00" from="24893934#1" to="-45415949"/>
    <trip id="Trip-291" depart="0.00" from="725446135#3" to="-688594560#1"/>
    <trip id="Trip-292" depart="0.00" from="686638871#0" to="38284622#4"/>
    <trip id="Trip-293" depart="0.00" from="233125771" to="34888409#0"/>
    <trip id="Trip-294" depart="0.00" from="-723996093" to="28856981#5"/>
    <trip id="Trip-295" depart="0.00" from="28856776#0" to="-725446135#1"/>
    <trip id="Trip-296" depart="0.00" from="-451530845#0" to="-668472058#1"/>
    <trip id="Trip-297" depart="0.00" from="-725809134#0" to="-725446133"/>
    <trip id="Trip-298" depart="0.00" from="54733120#1" to="38427034#1"/>
    <trip id="Trip-299" depart="0.00" from="34888245" to="668472053#2"/>
    <trip id="Trip-300" depart="0.00" from="28856893#1" to="-28856981#2"/>
    <trip id="Trip-301" depart="0.00" from="151170462" to="686638891#4"/>
    <trip id="Trip-302" depart="0.00" from="28797885#0" to="28856981#5"/>
    <trip id="Trip-303" depart="0.00" from="41194045#0" to="28797881#1"/>
    <trip id="Trip-304" depart="0.00" from="686693015#4" to="32502011#14"/>
    <trip id="Trip-305" depart="0.00" from="725768768#27" to="725768780"/>
    <trip id="Trip-306" depart="0.00" from="682417505#6" to="682417505#6"/>
    <trip id="Trip-307" depart="0.00" from="50220395#6" to="33903981"/>
    <trip id="Trip-308" depart="0.00" from="38285536#7" to="174532759#0"/>
    <trip id="Trip-309" depart="0.00" from="28856776#5" to="28797885#0"/>
    <trip id="Trip-310" depart="0.00" from="-724687133#0" to="54733120#25"/>
    <trip id="Trip-311" depart="0.00" from="34888306" to="153834046#20"/>
    <trip id="Trip-312" depart="0.00" from="38421935#0" to="54733120#12"/>
    <trip id="Trip-313" depart="0.00" from="-690692700#1" to="-725809134#13"/>
    <trip id="Trip-314" depart="0.00" from="-725415219" to="-686638877#2"/>
    <trip id="Trip-315" depart="0.00" from="38427387#1" to="-38284622#3"/>
    <trip id="Trip-316" depart="0.00" from="38285530#8" to="-688596678#0"/>
    <trip id="Trip-317" depart="0.00" from="682417505#2" to="-28797881#0"/>
    <trip id="Trip-318" depart="0.00" from="38285536#17" to="34888545#5"/>
    <trip id="Trip-319" depart="0.00" from="725446136#1" to="725768768#0"/>
    <trip id="Trip-320" depart="0.00" from="30071527" to="24764150#2"/>
    <trip id="Trip-321" depart="0.00" from="-668472043#1" to="-34888236"/>
    <trip id="Trip-322" depart="0.00" from="24893934#1" to="54733120#1"/>
    <trip id="Trip-323" depart="0.00" from="-28856981#4" to="686638875"/>
    <trip id="Trip-324" depart="0.00" from="174532664#0" to="38285530#23"/>
    <trip id="Trip-325" depart="0.00" from="41194045#0" to="-48981707"/>
    <trip id="Trip-326" depart="0.00" from="38421931#5" to="-690692706#1"/>
    <trip id="Trip-327" depart="0.00" from="-688594557" to="-38284622#0"/>
    <trip id="Trip-328" depart="0.00" from="686638887#0" to="-686638874"/>
    <trip id="Trip-329" depart="0.00" from="-28856981#3" to="-686638870"/>
    <trip id="Trip-330" depart="0.00" from="28856894#2" to="46971896#10"/>
    <trip id="Trip-331" depart="0.00" from="668472045" to="-724687129#0"/>
    <trip id="Trip-332" depart="0.00" from="38284622#5" to="-46971762#8"/>
    <trip id="Trip-333" depart="0.00" from="-724732945#2" to="-668472051#0"/>
</routes>
