<?xml version="1.0" encoding="UTF-8"?>

<!-- generated on 2022-06-06 15:51:25 by Eclipse SUMO duarouter Version 1.10.0
<configuration xmlns:xsi="http://www.w3.org/2001/XMLSchema-instance" xsi:noNamespaceSchemaLocation="http://sumo.dlr.de/xsd/duarouterConfiguration.xsd">

    <input>
        <net-file value="./network/cu.net.xml"/>
        <route-files value="./outputs/trips.trips.xml"/>
    </input>

    <output>
        <output-file value="./outputs/routes.rou.xml"/>
        <alternatives-output value="./outputs/routes.rou.alt.xml"/>
    </output>

    <time>
        <begin value="0"/>
        <end value="3600"/>
    </time>

    <report>
        <no-warnings value="true"/>
        <ignore-errors value="true"/>
        <no-step-log value="true"/>
    </report>

</configuration>
-->

<routes xmlns:xsi="http://www.w3.org/2001/XMLSchema-instance" xsi:noNamespaceSchemaLocation="http://sumo.dlr.de/xsd/routes_file.xsd">
    <vehicle id="Trip-0" depart="0.00">
        <route edges="38285536#12 38285536#13 38285536#14 38285536#15 38285536#16 38285536#17 38285536#18 38284647#13 38284647#14 38284647#15 38284647#16 689928611#0 689928611#1 689928611#2"/>
    </vehicle>
</routes>
