<?xml version="1.0" encoding="UTF-8"?>
<!-- generated on 2022-06-05 17:35:31.919516 by main.py v1_10_0+0000-83496a5972
  options: <doubleminus>odEdges 38285536#7,54733120#23
-->
<routes xmlns:xsi="http://www.w3.org/2001/XMLSchema-instance" xsi:noNamespaceSchemaLocation="http://sumo.dlr.de/xsd/routes_file.xsd">
    <trip id="Trip-0" depart="0.00" from="38285536#7" to="54733120#23"/>
</routes>
