<?xml version="1.0" encoding="UTF-8"?>
<!-- generated on 2022-06-06 15:51:24.735015 by main.py v1_10_0+0000-83496a5972
  options: <doubleminus>odEdges ./odEdges.txt
-->
<routes xmlns:xsi="http://www.w3.org/2001/XMLSchema-instance" xsi:noNamespaceSchemaLocation="http://sumo.dlr.de/xsd/routes_file.xsd">
    <trip id="Trip-0" depart="0.00" from="38285536#12" to="689928611#2"/>
</routes>
