<?xml version="1.0" encoding="UTF-8"?>
<!-- generated on 2022-02-23 20:40:26.567152 by $Id$ v1_10_0+0000-83496a5972
  options: 
-->
<routes xmlns:xsi="http://www.w3.org/2001/XMLSchema-instance" xsi:noNamespaceSchemaLocation="http://sumo.dlr.de/xsd/routes_file.xsd">
    <trip id="Trip-0" depart="0.00" from="38285536#12" to="-233125856#0"/>
</routes>
